# File generated by Flopy version 3.4.3 on 11/20/2023 at 15:51:07.
BEGIN options
END options

BEGIN packages
  DIS6  model1dt.dis  dis
  MST6  model1dt.mst  mst
  IC6  model1dt.ic  ic
  SSM6  model1dt.ssm  ssm1
  ADV6  model1dt.adv  adv1
  DSP6  model1dt.dsp  dsp1
  OC6  model1dt.oc  oc
END packages

