# File generated by Flopy version 3.4.3 on 11/20/2023 at 15:51:07.
BEGIN options
  SAVE_FLOWS
END options

BEGIN packages
  DIS6  model1df.dis  dis
  NPF6  model1df.npf  npf
  IC6  model1df.ic  ic
  WEL6  model1df.wel  wel1
  CHD6  model1df.chd  chd1
  OC6  model1df.oc  oc
END packages

