# File generated by Flopy version 3.4.3 on 11/20/2023 at 15:51:07.
BEGIN options
  SCHEME  tvd
END options

