# File generated by Flopy version 3.4.3 on 11/20/2023 at 15:51:07.
BEGIN options
  BUDGET  FILEOUT  model1df.cbc
  HEAD  FILEOUT  model1df.hds
END options

BEGIN period  1
  SAVE  HEAD  ALL
  SAVE  BUDGET  ALL
END period  1

