# File generated by Flopy version 3.4.3 on 11/20/2023 at 15:51:07.
BEGIN options
  BUDGET  FILEOUT  model1dt.cbc
  CONCENTRATION  FILEOUT  model1dt.ucn
END options

BEGIN period  1
  SAVE  CONCENTRATION  ALL
  SAVE  BUDGET  ALL
END period  1

