# File generated by Flopy version 3.4.3 on 11/20/2023 at 15:51:07.
BEGIN options
  SAVE_FLOWS
END options

BEGIN griddata
  porosity
    CONSTANT       0.25000000
END griddata

