# LPF package for SEAWAT generated by Flopy 3.4.3
        53    -1E+30         0  
         0         0         0         0         0         0         0         0         0         0
         0         0         0         0         0         0         0         0         0         0
   1.000000E+00   1.000000E+00   1.000000E+00   1.000000E+00   1.000000E+00   1.000000E+00   1.000000E+00   1.000000E+00   1.000000E+00   1.000000E+00
         0         0         0         0         0         0         0         0         0         0
         0         0         0         0         0         0         0         0         0         0
        15         1          (35E15.6)        -1 #hk layer 1
   7.853982E-01   2.356194E+00   3.926991E+00   5.497787E+00   7.068583E+00   8.639380E+00   1.021018E+01   1.178097E+01   1.335177E+01   1.492257E+01   1.649336E+01   1.806416E+01   1.963495E+01   2.120575E+01   2.277655E+01   2.434734E+01   2.591814E+01   2.748894E+01   2.905973E+01   3.063053E+01   3.220132E+01   3.400889E+01   3.636138E+01   3.942306E+01   4.340774E+01   4.859366E+01   5.534296E+01   6.412695E+01   7.555901E+01   9.043744E+01   1.098012E+02   1.350025E+02   1.678012E+02   2.104875E+02   2.660423E+02
   7.853982E-01   2.356194E+00   3.926991E+00   5.497787E+00   7.068583E+00   8.639380E+00   1.021018E+01   1.178097E+01   1.335177E+01   1.492257E+01   1.649336E+01   1.806416E+01   1.963495E+01   2.120575E+01   2.277655E+01   2.434734E+01   2.591814E+01   2.748894E+01   2.905973E+01   3.063053E+01   3.220132E+01   3.400889E+01   3.636138E+01   3.942306E+01   4.340774E+01   4.859366E+01   5.534296E+01   6.412695E+01   7.555901E+01   9.043744E+01   1.098012E+02   1.350025E+02   1.678012E+02   2.104875E+02   2.660423E+02
   7.853982E-01   2.356194E+00   3.926991E+00   5.497787E+00   7.068583E+00   8.639380E+00   1.021018E+01   1.178097E+01   1.335177E+01   1.492257E+01   1.649336E+01   1.806416E+01   1.963495E+01   2.120575E+01   2.277655E+01   2.434734E+01   2.591814E+01   2.748894E+01   2.905973E+01   3.063053E+01   3.220132E+01   3.400889E+01   3.636138E+01   3.942306E+01   4.340774E+01   4.859366E+01   5.534296E+01   6.412695E+01   7.555901E+01   9.043744E+01   1.098012E+02   1.350025E+02   1.678012E+02   2.104875E+02   2.660423E+02
        15         1          (35E15.6)        -1 #vka1
   1.570796E-01   4.712389E-01   7.853982E-01   1.099557E+00   1.413717E+00   1.727876E+00   2.042035E+00   2.356194E+00   2.670354E+00   2.984513E+00   3.298672E+00   3.612832E+00   3.926991E+00   4.241150E+00   4.555309E+00   4.869469E+00   5.183628E+00   5.497787E+00   5.811946E+00   6.126106E+00   6.440265E+00   6.801778E+00   7.272276E+00   7.884613E+00   8.681548E+00   9.718732E+00   1.106859E+01   1.282539E+01   1.511180E+01   1.808749E+01   2.196025E+01   2.700051E+01   3.356023E+01   4.209750E+01   5.320846E+01
   1.570796E-01   4.712389E-01   7.853982E-01   1.099557E+00   1.413717E+00   1.727876E+00   2.042035E+00   2.356194E+00   2.670354E+00   2.984513E+00   3.298672E+00   3.612832E+00   3.926991E+00   4.241150E+00   4.555309E+00   4.869469E+00   5.183628E+00   5.497787E+00   5.811946E+00   6.126106E+00   6.440265E+00   6.801778E+00   7.272276E+00   7.884613E+00   8.681548E+00   9.718732E+00   1.106859E+01   1.282539E+01   1.511180E+01   1.808749E+01   2.196025E+01   2.700051E+01   3.356023E+01   4.209750E+01   5.320846E+01
   1.570796E-01   4.712389E-01   7.853982E-01   1.099557E+00   1.413717E+00   1.727876E+00   2.042035E+00   2.356194E+00   2.670354E+00   2.984513E+00   3.298672E+00   3.612832E+00   3.926991E+00   4.241150E+00   4.555309E+00   4.869469E+00   5.183628E+00   5.497787E+00   5.811946E+00   6.126106E+00   6.440265E+00   6.801778E+00   7.272276E+00   7.884613E+00   8.681548E+00   9.718732E+00   1.106859E+01   1.282539E+01   1.511180E+01   1.808749E+01   2.196025E+01   2.700051E+01   3.356023E+01   4.209750E+01   5.320846E+01
        15         1          (35E15.6)        -1 #hk layer 2
   7.853982E-01   2.356194E+00   3.926991E+00   5.497787E+00   7.068583E+00   8.639380E+00   1.021018E+01   1.178097E+01   1.335177E+01   1.492257E+01   1.649336E+01   1.806416E+01   1.963495E+01   2.120575E+01   2.277655E+01   2.434734E+01   2.591814E+01   2.748894E+01   2.905973E+01   3.063053E+01   3.220132E+01   3.400889E+01   3.636138E+01   3.942306E+01   4.340774E+01   4.859366E+01   5.534296E+01   6.412695E+01   7.555901E+01   9.043744E+01   1.098012E+02   1.350025E+02   1.678012E+02   2.104875E+02   2.660423E+02
   7.853982E-01   2.356194E+00   3.926991E+00   5.497787E+00   7.068583E+00   8.639380E+00   1.021018E+01   1.178097E+01   1.335177E+01   1.492257E+01   1.649336E+01   1.806416E+01   1.963495E+01   2.120575E+01   2.277655E+01   2.434734E+01   2.591814E+01   2.748894E+01   2.905973E+01   3.063053E+01   3.220132E+01   3.400889E+01   3.636138E+01   3.942306E+01   4.340774E+01   4.859366E+01   5.534296E+01   6.412695E+01   7.555901E+01   9.043744E+01   1.098012E+02   1.350025E+02   1.678012E+02   2.104875E+02   2.660423E+02
   7.853982E-01   2.356194E+00   3.926991E+00   5.497787E+00   7.068583E+00   8.639380E+00   1.021018E+01   1.178097E+01   1.335177E+01   1.492257E+01   1.649336E+01   1.806416E+01   1.963495E+01   2.120575E+01   2.277655E+01   2.434734E+01   2.591814E+01   2.748894E+01   2.905973E+01   3.063053E+01   3.220132E+01   3.400889E+01   3.636138E+01   3.942306E+01   4.340774E+01   4.859366E+01   5.534296E+01   6.412695E+01   7.555901E+01   9.043744E+01   1.098012E+02   1.350025E+02   1.678012E+02   2.104875E+02   2.660423E+02
        15         1          (35E15.6)        -1 #vka2
   1.570796E-01   4.712389E-01   7.853982E-01   1.099557E+00   1.413717E+00   1.727876E+00   2.042035E+00   2.356194E+00   2.670354E+00   2.984513E+00   3.298672E+00   3.612832E+00   3.926991E+00   4.241150E+00   4.555309E+00   4.869469E+00   5.183628E+00   5.497787E+00   5.811946E+00   6.126106E+00   6.440265E+00   6.801778E+00   7.272276E+00   7.884613E+00   8.681548E+00   9.718732E+00   1.106859E+01   1.282539E+01   1.511180E+01   1.808749E+01   2.196025E+01   2.700051E+01   3.356023E+01   4.209750E+01   5.320846E+01
   1.570796E-01   4.712389E-01   7.853982E-01   1.099557E+00   1.413717E+00   1.727876E+00   2.042035E+00   2.356194E+00   2.670354E+00   2.984513E+00   3.298672E+00   3.612832E+00   3.926991E+00   4.241150E+00   4.555309E+00   4.869469E+00   5.183628E+00   5.497787E+00   5.811946E+00   6.126106E+00   6.440265E+00   6.801778E+00   7.272276E+00   7.884613E+00   8.681548E+00   9.718732E+00   1.106859E+01   1.282539E+01   1.511180E+01   1.808749E+01   2.196025E+01   2.700051E+01   3.356023E+01   4.209750E+01   5.320846E+01
   1.570796E-01   4.712389E-01   7.853982E-01   1.099557E+00   1.413717E+00   1.727876E+00   2.042035E+00   2.356194E+00   2.670354E+00   2.984513E+00   3.298672E+00   3.612832E+00   3.926991E+00   4.241150E+00   4.555309E+00   4.869469E+00   5.183628E+00   5.497787E+00   5.811946E+00   6.126106E+00   6.440265E+00   6.801778E+00   7.272276E+00   7.884613E+00   8.681548E+00   9.718732E+00   1.106859E+01   1.282539E+01   1.511180E+01   1.808749E+01   2.196025E+01   2.700051E+01   3.356023E+01   4.209750E+01   5.320846E+01
        15         1          (35E15.6)        -1 #hk layer 3
   5.497787E+02   1.649336E+03   2.748894E+03   3.848451E+03   4.948008E+03   6.047566E+03   7.147123E+03   8.246681E+03   9.346238E+03   1.044580E+04   1.154535E+04   1.264491E+04   1.374447E+04   1.484403E+04   1.594358E+04   1.704314E+04   1.814270E+04   1.924226E+04   2.034181E+04   2.144137E+04   2.254093E+04   2.380622E+04   2.545296E+04   2.759614E+04   3.038542E+04   3.401556E+04   3.874007E+04   4.488886E+04   5.289130E+04   6.330621E+04   7.686085E+04   9.450177E+04   1.174608E+05   1.473412E+05   1.862296E+05
   5.497787E+02   1.649336E+03   2.748894E+03   3.848451E+03   4.948008E+03   6.047566E+03   7.147123E+03   8.246681E+03   9.346238E+03   1.044580E+04   1.154535E+04   1.264491E+04   1.374447E+04   1.484403E+04   1.594358E+04   1.704314E+04   1.814270E+04   1.924226E+04   2.034181E+04   2.144137E+04   2.254093E+04   2.380622E+04   2.545296E+04   2.759614E+04   3.038542E+04   3.401556E+04   3.874007E+04   4.488886E+04   5.289130E+04   6.330621E+04   7.686085E+04   9.450177E+04   1.174608E+05   1.473412E+05   1.862296E+05
   5.497787E+02   1.649336E+03   2.748894E+03   3.848451E+03   4.948008E+03   6.047566E+03   7.147123E+03   8.246681E+03   9.346238E+03   1.044580E+04   1.154535E+04   1.264491E+04   1.374447E+04   1.484403E+04   1.594358E+04   1.704314E+04   1.814270E+04   1.924226E+04   2.034181E+04   2.144137E+04   2.254093E+04   2.380622E+04   2.545296E+04   2.759614E+04   3.038542E+04   3.401556E+04   3.874007E+04   4.488886E+04   5.289130E+04   6.330621E+04   7.686085E+04   9.450177E+04   1.174608E+05   1.473412E+05   1.862296E+05
        15         1          (35E15.6)        -1 #vka3
   1.099557E+02   3.298672E+02   5.497787E+02   7.696902E+02   9.896017E+02   1.209513E+03   1.429425E+03   1.649336E+03   1.869248E+03   2.089159E+03   2.309071E+03   2.528982E+03   2.748894E+03   2.968805E+03   3.188717E+03   3.408628E+03   3.628540E+03   3.848451E+03   4.068363E+03   4.288274E+03   4.508186E+03   4.761245E+03   5.090593E+03   5.519229E+03   6.077083E+03   6.803112E+03   7.748014E+03   8.977772E+03   1.057826E+04   1.266124E+04   1.537217E+04   1.890035E+04   2.349216E+04   2.946825E+04   3.724592E+04
   1.099557E+02   3.298672E+02   5.497787E+02   7.696902E+02   9.896017E+02   1.209513E+03   1.429425E+03   1.649336E+03   1.869248E+03   2.089159E+03   2.309071E+03   2.528982E+03   2.748894E+03   2.968805E+03   3.188717E+03   3.408628E+03   3.628540E+03   3.848451E+03   4.068363E+03   4.288274E+03   4.508186E+03   4.761245E+03   5.090593E+03   5.519229E+03   6.077083E+03   6.803112E+03   7.748014E+03   8.977772E+03   1.057826E+04   1.266124E+04   1.537217E+04   1.890035E+04   2.349216E+04   2.946825E+04   3.724592E+04
   1.099557E+02   3.298672E+02   5.497787E+02   7.696902E+02   9.896017E+02   1.209513E+03   1.429425E+03   1.649336E+03   1.869248E+03   2.089159E+03   2.309071E+03   2.528982E+03   2.748894E+03   2.968805E+03   3.188717E+03   3.408628E+03   3.628540E+03   3.848451E+03   4.068363E+03   4.288274E+03   4.508186E+03   4.761245E+03   5.090593E+03   5.519229E+03   6.077083E+03   6.803112E+03   7.748014E+03   8.977772E+03   1.057826E+04   1.266124E+04   1.537217E+04   1.890035E+04   2.349216E+04   2.946825E+04   3.724592E+04
        15         1          (35E15.6)        -1 #hk layer 4
   5.497787E+02   1.649336E+03   2.748894E+03   3.848451E+03   4.948008E+03   6.047566E+03   7.147123E+03   8.246681E+03   9.346238E+03   1.044580E+04   1.154535E+04   1.264491E+04   1.374447E+04   1.484403E+04   1.594358E+04   1.704314E+04   1.814270E+04   1.924226E+04   2.034181E+04   2.144137E+04   2.254093E+04   2.380622E+04   2.545296E+04   2.759614E+04   3.038542E+04   3.401556E+04   3.874007E+04   4.488886E+04   5.289130E+04   6.330621E+04   7.686085E+04   9.450177E+04   1.174608E+05   1.473412E+05   1.862296E+05
   5.497787E+02   1.649336E+03   2.748894E+03   3.848451E+03   4.948008E+03   6.047566E+03   7.147123E+03   8.246681E+03   9.346238E+03   1.044580E+04   1.154535E+04   1.264491E+04   1.374447E+04   1.484403E+04   1.594358E+04   1.704314E+04   1.814270E+04   1.924226E+04   2.034181E+04   2.144137E+04   2.254093E+04   2.380622E+04   2.545296E+04   2.759614E+04   3.038542E+04   3.401556E+04   3.874007E+04   4.488886E+04   5.289130E+04   6.330621E+04   7.686085E+04   9.450177E+04   1.174608E+05   1.473412E+05   1.862296E+05
   5.497787E+02   1.649336E+03   2.748894E+03   3.848451E+03   4.948008E+03   6.047566E+03   7.147123E+03   8.246681E+03   9.346238E+03   1.044580E+04   1.154535E+04   1.264491E+04   1.374447E+04   1.484403E+04   1.594358E+04   1.704314E+04   1.814270E+04   1.924226E+04   2.034181E+04   2.144137E+04   2.254093E+04   2.380622E+04   2.545296E+04   2.759614E+04   3.038542E+04   3.401556E+04   3.874007E+04   4.488886E+04   5.289130E+04   6.330621E+04   7.686085E+04   9.450177E+04   1.174608E+05   1.473412E+05   1.862296E+05
        15         1          (35E15.6)        -1 #vka4
   1.099557E+02   3.298672E+02   5.497787E+02   7.696902E+02   9.896017E+02   1.209513E+03   1.429425E+03   1.649336E+03   1.869248E+03   2.089159E+03   2.309071E+03   2.528982E+03   2.748894E+03   2.968805E+03   3.188717E+03   3.408628E+03   3.628540E+03   3.848451E+03   4.068363E+03   4.288274E+03   4.508186E+03   4.761245E+03   5.090593E+03   5.519229E+03   6.077083E+03   6.803112E+03   7.748014E+03   8.977772E+03   1.057826E+04   1.266124E+04   1.537217E+04   1.890035E+04   2.349216E+04   2.946825E+04   3.724592E+04
   1.099557E+02   3.298672E+02   5.497787E+02   7.696902E+02   9.896017E+02   1.209513E+03   1.429425E+03   1.649336E+03   1.869248E+03   2.089159E+03   2.309071E+03   2.528982E+03   2.748894E+03   2.968805E+03   3.188717E+03   3.408628E+03   3.628540E+03   3.848451E+03   4.068363E+03   4.288274E+03   4.508186E+03   4.761245E+03   5.090593E+03   5.519229E+03   6.077083E+03   6.803112E+03   7.748014E+03   8.977772E+03   1.057826E+04   1.266124E+04   1.537217E+04   1.890035E+04   2.349216E+04   2.946825E+04   3.724592E+04
   1.099557E+02   3.298672E+02   5.497787E+02   7.696902E+02   9.896017E+02   1.209513E+03   1.429425E+03   1.649336E+03   1.869248E+03   2.089159E+03   2.309071E+03   2.528982E+03   2.748894E+03   2.968805E+03   3.188717E+03   3.408628E+03   3.628540E+03   3.848451E+03   4.068363E+03   4.288274E+03   4.508186E+03   4.761245E+03   5.090593E+03   5.519229E+03   6.077083E+03   6.803112E+03   7.748014E+03   8.977772E+03   1.057826E+04   1.266124E+04   1.537217E+04   1.890035E+04   2.349216E+04   2.946825E+04   3.724592E+04
        15         1          (35E15.6)        -1 #hk layer 5
   5.497787E+02   1.649336E+03   2.748894E+03   3.848451E+03   4.948008E+03   6.047566E+03   7.147123E+03   8.246681E+03   9.346238E+03   1.044580E+04   1.154535E+04   1.264491E+04   1.374447E+04   1.484403E+04   1.594358E+04   1.704314E+04   1.814270E+04   1.924226E+04   2.034181E+04   2.144137E+04   2.254093E+04   2.380622E+04   2.545296E+04   2.759614E+04   3.038542E+04   3.401556E+04   3.874007E+04   4.488886E+04   5.289130E+04   6.330621E+04   7.686085E+04   9.450177E+04   1.174608E+05   1.473412E+05   1.862296E+05
   5.497787E+02   1.649336E+03   2.748894E+03   3.848451E+03   4.948008E+03   6.047566E+03   7.147123E+03   8.246681E+03   9.346238E+03   1.044580E+04   1.154535E+04   1.264491E+04   1.374447E+04   1.484403E+04   1.594358E+04   1.704314E+04   1.814270E+04   1.924226E+04   2.034181E+04   2.144137E+04   2.254093E+04   2.380622E+04   2.545296E+04   2.759614E+04   3.038542E+04   3.401556E+04   3.874007E+04   4.488886E+04   5.289130E+04   6.330621E+04   7.686085E+04   9.450177E+04   1.174608E+05   1.473412E+05   1.862296E+05
   5.497787E+02   1.649336E+03   2.748894E+03   3.848451E+03   4.948008E+03   6.047566E+03   7.147123E+03   8.246681E+03   9.346238E+03   1.044580E+04   1.154535E+04   1.264491E+04   1.374447E+04   1.484403E+04   1.594358E+04   1.704314E+04   1.814270E+04   1.924226E+04   2.034181E+04   2.144137E+04   2.254093E+04   2.380622E+04   2.545296E+04   2.759614E+04   3.038542E+04   3.401556E+04   3.874007E+04   4.488886E+04   5.289130E+04   6.330621E+04   7.686085E+04   9.450177E+04   1.174608E+05   1.473412E+05   1.862296E+05
        15         1          (35E15.6)        -1 #vka5
   1.099557E+02   3.298672E+02   5.497787E+02   7.696902E+02   9.896017E+02   1.209513E+03   1.429425E+03   1.649336E+03   1.869248E+03   2.089159E+03   2.309071E+03   2.528982E+03   2.748894E+03   2.968805E+03   3.188717E+03   3.408628E+03   3.628540E+03   3.848451E+03   4.068363E+03   4.288274E+03   4.508186E+03   4.761245E+03   5.090593E+03   5.519229E+03   6.077083E+03   6.803112E+03   7.748014E+03   8.977772E+03   1.057826E+04   1.266124E+04   1.537217E+04   1.890035E+04   2.349216E+04   2.946825E+04   3.724592E+04
   1.099557E+02   3.298672E+02   5.497787E+02   7.696902E+02   9.896017E+02   1.209513E+03   1.429425E+03   1.649336E+03   1.869248E+03   2.089159E+03   2.309071E+03   2.528982E+03   2.748894E+03   2.968805E+03   3.188717E+03   3.408628E+03   3.628540E+03   3.848451E+03   4.068363E+03   4.288274E+03   4.508186E+03   4.761245E+03   5.090593E+03   5.519229E+03   6.077083E+03   6.803112E+03   7.748014E+03   8.977772E+03   1.057826E+04   1.266124E+04   1.537217E+04   1.890035E+04   2.349216E+04   2.946825E+04   3.724592E+04
   1.099557E+02   3.298672E+02   5.497787E+02   7.696902E+02   9.896017E+02   1.209513E+03   1.429425E+03   1.649336E+03   1.869248E+03   2.089159E+03   2.309071E+03   2.528982E+03   2.748894E+03   2.968805E+03   3.188717E+03   3.408628E+03   3.628540E+03   3.848451E+03   4.068363E+03   4.288274E+03   4.508186E+03   4.761245E+03   5.090593E+03   5.519229E+03   6.077083E+03   6.803112E+03   7.748014E+03   8.977772E+03   1.057826E+04   1.266124E+04   1.537217E+04   1.890035E+04   2.349216E+04   2.946825E+04   3.724592E+04
        15         1          (35E15.6)        -1 #hk layer 6
   5.497787E+02   1.649336E+03   2.748894E+03   3.848451E+03   4.948008E+03   6.047566E+03   7.147123E+03   8.246681E+03   9.346238E+03   1.044580E+04   1.154535E+04   1.264491E+04   1.374447E+04   1.484403E+04   1.594358E+04   1.704314E+04   1.814270E+04   1.924226E+04   2.034181E+04   2.144137E+04   2.254093E+04   2.380622E+04   2.545296E+04   2.759614E+04   3.038542E+04   3.401556E+04   3.874007E+04   4.488886E+04   5.289130E+04   6.330621E+04   7.686085E+04   9.450177E+04   1.174608E+05   1.473412E+05   1.862296E+05
   5.497787E+02   1.649336E+03   2.748894E+03   3.848451E+03   4.948008E+03   6.047566E+03   7.147123E+03   8.246681E+03   9.346238E+03   1.044580E+04   1.154535E+04   1.264491E+04   1.374447E+04   1.484403E+04   1.594358E+04   1.704314E+04   1.814270E+04   1.924226E+04   2.034181E+04   2.144137E+04   2.254093E+04   2.380622E+04   2.545296E+04   2.759614E+04   3.038542E+04   3.401556E+04   3.874007E+04   4.488886E+04   5.289130E+04   6.330621E+04   7.686085E+04   9.450177E+04   1.174608E+05   1.473412E+05   1.862296E+05
   5.497787E+02   1.649336E+03   2.748894E+03   3.848451E+03   4.948008E+03   6.047566E+03   7.147123E+03   8.246681E+03   9.346238E+03   1.044580E+04   1.154535E+04   1.264491E+04   1.374447E+04   1.484403E+04   1.594358E+04   1.704314E+04   1.814270E+04   1.924226E+04   2.034181E+04   2.144137E+04   2.254093E+04   2.380622E+04   2.545296E+04   2.759614E+04   3.038542E+04   3.401556E+04   3.874007E+04   4.488886E+04   5.289130E+04   6.330621E+04   7.686085E+04   9.450177E+04   1.174608E+05   1.473412E+05   1.862296E+05
        15         1          (35E15.6)        -1 #vka6
   1.099557E+02   3.298672E+02   5.497787E+02   7.696902E+02   9.896017E+02   1.209513E+03   1.429425E+03   1.649336E+03   1.869248E+03   2.089159E+03   2.309071E+03   2.528982E+03   2.748894E+03   2.968805E+03   3.188717E+03   3.408628E+03   3.628540E+03   3.848451E+03   4.068363E+03   4.288274E+03   4.508186E+03   4.761245E+03   5.090593E+03   5.519229E+03   6.077083E+03   6.803112E+03   7.748014E+03   8.977772E+03   1.057826E+04   1.266124E+04   1.537217E+04   1.890035E+04   2.349216E+04   2.946825E+04   3.724592E+04
   1.099557E+02   3.298672E+02   5.497787E+02   7.696902E+02   9.896017E+02   1.209513E+03   1.429425E+03   1.649336E+03   1.869248E+03   2.089159E+03   2.309071E+03   2.528982E+03   2.748894E+03   2.968805E+03   3.188717E+03   3.408628E+03   3.628540E+03   3.848451E+03   4.068363E+03   4.288274E+03   4.508186E+03   4.761245E+03   5.090593E+03   5.519229E+03   6.077083E+03   6.803112E+03   7.748014E+03   8.977772E+03   1.057826E+04   1.266124E+04   1.537217E+04   1.890035E+04   2.349216E+04   2.946825E+04   3.724592E+04
   1.099557E+02   3.298672E+02   5.497787E+02   7.696902E+02   9.896017E+02   1.209513E+03   1.429425E+03   1.649336E+03   1.869248E+03   2.089159E+03   2.309071E+03   2.528982E+03   2.748894E+03   2.968805E+03   3.188717E+03   3.408628E+03   3.628540E+03   3.848451E+03   4.068363E+03   4.288274E+03   4.508186E+03   4.761245E+03   5.090593E+03   5.519229E+03   6.077083E+03   6.803112E+03   7.748014E+03   8.977772E+03   1.057826E+04   1.266124E+04   1.537217E+04   1.890035E+04   2.349216E+04   2.946825E+04   3.724592E+04
        15         1          (35E15.6)        -1 #hk layer 7
   5.497787E+02   1.649336E+03   2.748894E+03   3.848451E+03   4.948008E+03   6.047566E+03   7.147123E+03   8.246681E+03   9.346238E+03   1.044580E+04   1.154535E+04   1.264491E+04   1.374447E+04   1.484403E+04   1.594358E+04   1.704314E+04   1.814270E+04   1.924226E+04   2.034181E+04   2.144137E+04   2.254093E+04   2.380622E+04   2.545296E+04   2.759614E+04   3.038542E+04   3.401556E+04   3.874007E+04   4.488886E+04   5.289130E+04   6.330621E+04   7.686085E+04   9.450177E+04   1.174608E+05   1.473412E+05   1.862296E+05
   5.497787E+02   1.649336E+03   2.748894E+03   3.848451E+03   4.948008E+03   6.047566E+03   7.147123E+03   8.246681E+03   9.346238E+03   1.044580E+04   1.154535E+04   1.264491E+04   1.374447E+04   1.484403E+04   1.594358E+04   1.704314E+04   1.814270E+04   1.924226E+04   2.034181E+04   2.144137E+04   2.254093E+04   2.380622E+04   2.545296E+04   2.759614E+04   3.038542E+04   3.401556E+04   3.874007E+04   4.488886E+04   5.289130E+04   6.330621E+04   7.686085E+04   9.450177E+04   1.174608E+05   1.473412E+05   1.862296E+05
   5.497787E+02   1.649336E+03   2.748894E+03   3.848451E+03   4.948008E+03   6.047566E+03   7.147123E+03   8.246681E+03   9.346238E+03   1.044580E+04   1.154535E+04   1.264491E+04   1.374447E+04   1.484403E+04   1.594358E+04   1.704314E+04   1.814270E+04   1.924226E+04   2.034181E+04   2.144137E+04   2.254093E+04   2.380622E+04   2.545296E+04   2.759614E+04   3.038542E+04   3.401556E+04   3.874007E+04   4.488886E+04   5.289130E+04   6.330621E+04   7.686085E+04   9.450177E+04   1.174608E+05   1.473412E+05   1.862296E+05
        15         1          (35E15.6)        -1 #vka7
   1.099557E+02   3.298672E+02   5.497787E+02   7.696902E+02   9.896017E+02   1.209513E+03   1.429425E+03   1.649336E+03   1.869248E+03   2.089159E+03   2.309071E+03   2.528982E+03   2.748894E+03   2.968805E+03   3.188717E+03   3.408628E+03   3.628540E+03   3.848451E+03   4.068363E+03   4.288274E+03   4.508186E+03   4.761245E+03   5.090593E+03   5.519229E+03   6.077083E+03   6.803112E+03   7.748014E+03   8.977772E+03   1.057826E+04   1.266124E+04   1.537217E+04   1.890035E+04   2.349216E+04   2.946825E+04   3.724592E+04
   1.099557E+02   3.298672E+02   5.497787E+02   7.696902E+02   9.896017E+02   1.209513E+03   1.429425E+03   1.649336E+03   1.869248E+03   2.089159E+03   2.309071E+03   2.528982E+03   2.748894E+03   2.968805E+03   3.188717E+03   3.408628E+03   3.628540E+03   3.848451E+03   4.068363E+03   4.288274E+03   4.508186E+03   4.761245E+03   5.090593E+03   5.519229E+03   6.077083E+03   6.803112E+03   7.748014E+03   8.977772E+03   1.057826E+04   1.266124E+04   1.537217E+04   1.890035E+04   2.349216E+04   2.946825E+04   3.724592E+04
   1.099557E+02   3.298672E+02   5.497787E+02   7.696902E+02   9.896017E+02   1.209513E+03   1.429425E+03   1.649336E+03   1.869248E+03   2.089159E+03   2.309071E+03   2.528982E+03   2.748894E+03   2.968805E+03   3.188717E+03   3.408628E+03   3.628540E+03   3.848451E+03   4.068363E+03   4.288274E+03   4.508186E+03   4.761245E+03   5.090593E+03   5.519229E+03   6.077083E+03   6.803112E+03   7.748014E+03   8.977772E+03   1.057826E+04   1.266124E+04   1.537217E+04   1.890035E+04   2.349216E+04   2.946825E+04   3.724592E+04
        15         1          (35E15.6)        -1 #hk layer 8
   5.497787E+02   1.649336E+03   2.748894E+03   3.848451E+03   4.948008E+03   6.047566E+03   7.147123E+03   8.246681E+03   9.346238E+03   1.044580E+04   1.154535E+04   1.264491E+04   1.374447E+04   1.484403E+04   1.594358E+04   1.704314E+04   1.814270E+04   1.924226E+04   2.034181E+04   2.144137E+04   2.254093E+04   2.380622E+04   2.545296E+04   2.759614E+04   3.038542E+04   3.401556E+04   3.874007E+04   4.488886E+04   5.289130E+04   6.330621E+04   7.686085E+04   9.450177E+04   1.174608E+05   1.473412E+05   1.862296E+05
   5.497787E+02   1.649336E+03   2.748894E+03   3.848451E+03   4.948008E+03   6.047566E+03   7.147123E+03   8.246681E+03   9.346238E+03   1.044580E+04   1.154535E+04   1.264491E+04   1.374447E+04   1.484403E+04   1.594358E+04   1.704314E+04   1.814270E+04   1.924226E+04   2.034181E+04   2.144137E+04   2.254093E+04   2.380622E+04   2.545296E+04   2.759614E+04   3.038542E+04   3.401556E+04   3.874007E+04   4.488886E+04   5.289130E+04   6.330621E+04   7.686085E+04   9.450177E+04   1.174608E+05   1.473412E+05   1.862296E+05
   5.497787E+02   1.649336E+03   2.748894E+03   3.848451E+03   4.948008E+03   6.047566E+03   7.147123E+03   8.246681E+03   9.346238E+03   1.044580E+04   1.154535E+04   1.264491E+04   1.374447E+04   1.484403E+04   1.594358E+04   1.704314E+04   1.814270E+04   1.924226E+04   2.034181E+04   2.144137E+04   2.254093E+04   2.380622E+04   2.545296E+04   2.759614E+04   3.038542E+04   3.401556E+04   3.874007E+04   4.488886E+04   5.289130E+04   6.330621E+04   7.686085E+04   9.450177E+04   1.174608E+05   1.473412E+05   1.862296E+05
        15         1          (35E15.6)        -1 #vka8
   1.099557E+02   3.298672E+02   5.497787E+02   7.696902E+02   9.896017E+02   1.209513E+03   1.429425E+03   1.649336E+03   1.869248E+03   2.089159E+03   2.309071E+03   2.528982E+03   2.748894E+03   2.968805E+03   3.188717E+03   3.408628E+03   3.628540E+03   3.848451E+03   4.068363E+03   4.288274E+03   4.508186E+03   4.761245E+03   5.090593E+03   5.519229E+03   6.077083E+03   6.803112E+03   7.748014E+03   8.977772E+03   1.057826E+04   1.266124E+04   1.537217E+04   1.890035E+04   2.349216E+04   2.946825E+04   3.724592E+04
   1.099557E+02   3.298672E+02   5.497787E+02   7.696902E+02   9.896017E+02   1.209513E+03   1.429425E+03   1.649336E+03   1.869248E+03   2.089159E+03   2.309071E+03   2.528982E+03   2.748894E+03   2.968805E+03   3.188717E+03   3.408628E+03   3.628540E+03   3.848451E+03   4.068363E+03   4.288274E+03   4.508186E+03   4.761245E+03   5.090593E+03   5.519229E+03   6.077083E+03   6.803112E+03   7.748014E+03   8.977772E+03   1.057826E+04   1.266124E+04   1.537217E+04   1.890035E+04   2.349216E+04   2.946825E+04   3.724592E+04
   1.099557E+02   3.298672E+02   5.497787E+02   7.696902E+02   9.896017E+02   1.209513E+03   1.429425E+03   1.649336E+03   1.869248E+03   2.089159E+03   2.309071E+03   2.528982E+03   2.748894E+03   2.968805E+03   3.188717E+03   3.408628E+03   3.628540E+03   3.848451E+03   4.068363E+03   4.288274E+03   4.508186E+03   4.761245E+03   5.090593E+03   5.519229E+03   6.077083E+03   6.803112E+03   7.748014E+03   8.977772E+03   1.057826E+04   1.266124E+04   1.537217E+04   1.890035E+04   2.349216E+04   2.946825E+04   3.724592E+04
        15         1          (35E15.6)        -1 #hk layer 9
   7.853982E-01   2.356194E+00   3.926991E+00   5.497787E+00   7.068583E+00   8.639380E+00   1.021018E+01   1.178097E+01   1.335177E+01   1.492257E+01   1.649336E+01   1.806416E+01   1.963495E+01   2.120575E+01   2.277655E+01   2.434734E+01   2.591814E+01   2.748894E+01   2.905973E+01   3.063053E+01   3.220132E+01   3.400889E+01   3.636138E+01   3.942306E+01   4.340774E+01   4.859366E+01   5.534296E+01   6.412695E+01   7.555901E+01   9.043744E+01   1.098012E+02   1.350025E+02   1.678012E+02   2.104875E+02   2.660423E+02
   7.853982E-01   2.356194E+00   3.926991E+00   5.497787E+00   7.068583E+00   8.639380E+00   1.021018E+01   1.178097E+01   1.335177E+01   1.492257E+01   1.649336E+01   1.806416E+01   1.963495E+01   2.120575E+01   2.277655E+01   2.434734E+01   2.591814E+01   2.748894E+01   2.905973E+01   3.063053E+01   3.220132E+01   3.400889E+01   3.636138E+01   3.942306E+01   4.340774E+01   4.859366E+01   5.534296E+01   6.412695E+01   7.555901E+01   9.043744E+01   1.098012E+02   1.350025E+02   1.678012E+02   2.104875E+02   2.660423E+02
   7.853982E-01   2.356194E+00   3.926991E+00   5.497787E+00   7.068583E+00   8.639380E+00   1.021018E+01   1.178097E+01   1.335177E+01   1.492257E+01   1.649336E+01   1.806416E+01   1.963495E+01   2.120575E+01   2.277655E+01   2.434734E+01   2.591814E+01   2.748894E+01   2.905973E+01   3.063053E+01   3.220132E+01   3.400889E+01   3.636138E+01   3.942306E+01   4.340774E+01   4.859366E+01   5.534296E+01   6.412695E+01   7.555901E+01   9.043744E+01   1.098012E+02   1.350025E+02   1.678012E+02   2.104875E+02   2.660423E+02
        15         1          (35E15.6)        -1 #vka9
   1.570796E-01   4.712389E-01   7.853982E-01   1.099557E+00   1.413717E+00   1.727876E+00   2.042035E+00   2.356194E+00   2.670354E+00   2.984513E+00   3.298672E+00   3.612832E+00   3.926991E+00   4.241150E+00   4.555309E+00   4.869469E+00   5.183628E+00   5.497787E+00   5.811946E+00   6.126106E+00   6.440265E+00   6.801778E+00   7.272276E+00   7.884613E+00   8.681548E+00   9.718732E+00   1.106859E+01   1.282539E+01   1.511180E+01   1.808749E+01   2.196025E+01   2.700051E+01   3.356023E+01   4.209750E+01   5.320846E+01
   1.570796E-01   4.712389E-01   7.853982E-01   1.099557E+00   1.413717E+00   1.727876E+00   2.042035E+00   2.356194E+00   2.670354E+00   2.984513E+00   3.298672E+00   3.612832E+00   3.926991E+00   4.241150E+00   4.555309E+00   4.869469E+00   5.183628E+00   5.497787E+00   5.811946E+00   6.126106E+00   6.440265E+00   6.801778E+00   7.272276E+00   7.884613E+00   8.681548E+00   9.718732E+00   1.106859E+01   1.282539E+01   1.511180E+01   1.808749E+01   2.196025E+01   2.700051E+01   3.356023E+01   4.209750E+01   5.320846E+01