## BTN for MT3DMS, generated by Flopy.
##
        10         3        35         1         1         1
D   M   KG  
T T T T T 
 0 0 0 0 0 0 0 0 0 0
        31         1          (35E15.6)        -1 #delr
   5.000000E+00   5.000000E+00   5.000000E+00   5.000000E+00   5.000000E+00   5.000000E+00   5.000000E+00   5.000000E+00   5.000000E+00   5.000000E+00   5.000000E+00   5.000000E+00   5.000000E+00   5.000000E+00   5.000000E+00   5.000000E+00   5.000000E+00   5.000000E+00   5.000000E+00   5.000000E+00   5.000000E+00   6.507330E+00   8.469069E+00   1.102221E+01   1.434503E+01   1.866957E+01   2.429781E+01   3.162278E+01   4.115597E+01   5.356310E+01   6.971056E+01   9.072593E+01   1.180767E+02   1.536729E+02   2.000000E+02
        31         1           (3E15.6)        -1 #delc
   1.000000E+00   1.000000E+00   1.000000E+00
        31         1          (35E15.6)        -1 #htop
   0.000000E+00   0.000000E+00   0.000000E+00   0.000000E+00   0.000000E+00   0.000000E+00   0.000000E+00   0.000000E+00   0.000000E+00   0.000000E+00   0.000000E+00   0.000000E+00   0.000000E+00   0.000000E+00   0.000000E+00   0.000000E+00   0.000000E+00   0.000000E+00   0.000000E+00   0.000000E+00   0.000000E+00   0.000000E+00   0.000000E+00   0.000000E+00   0.000000E+00   0.000000E+00   0.000000E+00   0.000000E+00   0.000000E+00   0.000000E+00   0.000000E+00   0.000000E+00   0.000000E+00   0.000000E+00   0.000000E+00
   0.000000E+00   0.000000E+00   0.000000E+00   0.000000E+00   0.000000E+00   0.000000E+00   0.000000E+00   0.000000E+00   0.000000E+00   0.000000E+00   0.000000E+00   0.000000E+00   0.000000E+00   0.000000E+00   0.000000E+00   0.000000E+00   0.000000E+00   0.000000E+00   0.000000E+00   0.000000E+00   0.000000E+00   0.000000E+00   0.000000E+00   0.000000E+00   0.000000E+00   0.000000E+00   0.000000E+00   0.000000E+00   0.000000E+00   0.000000E+00   0.000000E+00   0.000000E+00   0.000000E+00   0.000000E+00   0.000000E+00
   0.000000E+00   0.000000E+00   0.000000E+00   0.000000E+00   0.000000E+00   0.000000E+00   0.000000E+00   0.000000E+00   0.000000E+00   0.000000E+00   0.000000E+00   0.000000E+00   0.000000E+00   0.000000E+00   0.000000E+00   0.000000E+00   0.000000E+00   0.000000E+00   0.000000E+00   0.000000E+00   0.000000E+00   0.000000E+00   0.000000E+00   0.000000E+00   0.000000E+00   0.000000E+00   0.000000E+00   0.000000E+00   0.000000E+00   0.000000E+00   0.000000E+00   0.000000E+00   0.000000E+00   0.000000E+00   0.000000E+00
        31         1          (35E15.6)        -1 #dz layer 1
   5.000000E+00   5.000000E+00   5.000000E+00   5.000000E+00   5.000000E+00   5.000000E+00   5.000000E+00   5.000000E+00   5.000000E+00   5.000000E+00   5.000000E+00   5.000000E+00   5.000000E+00   5.000000E+00   5.000000E+00   5.000000E+00   5.000000E+00   5.000000E+00   5.000000E+00   5.000000E+00   5.000000E+00   5.000000E+00   5.000000E+00   5.000000E+00   5.000000E+00   5.000000E+00   5.000000E+00   5.000000E+00   5.000000E+00   5.000000E+00   5.000000E+00   5.000000E+00   5.000000E+00   5.000000E+00   5.000000E+00
   5.000000E+00   5.000000E+00   5.000000E+00   5.000000E+00   5.000000E+00   5.000000E+00   5.000000E+00   5.000000E+00   5.000000E+00   5.000000E+00   5.000000E+00   5.000000E+00   5.000000E+00   5.000000E+00   5.000000E+00   5.000000E+00   5.000000E+00   5.000000E+00   5.000000E+00   5.000000E+00   5.000000E+00   5.000000E+00   5.000000E+00   5.000000E+00   5.000000E+00   5.000000E+00   5.000000E+00   5.000000E+00   5.000000E+00   5.000000E+00   5.000000E+00   5.000000E+00   5.000000E+00   5.000000E+00   5.000000E+00
   5.000000E+00   5.000000E+00   5.000000E+00   5.000000E+00   5.000000E+00   5.000000E+00   5.000000E+00   5.000000E+00   5.000000E+00   5.000000E+00   5.000000E+00   5.000000E+00   5.000000E+00   5.000000E+00   5.000000E+00   5.000000E+00   5.000000E+00   5.000000E+00   5.000000E+00   5.000000E+00   5.000000E+00   5.000000E+00   5.000000E+00   5.000000E+00   5.000000E+00   5.000000E+00   5.000000E+00   5.000000E+00   5.000000E+00   5.000000E+00   5.000000E+00   5.000000E+00   5.000000E+00   5.000000E+00   5.000000E+00
        31         1          (35E15.6)        -1 #dz layer 2
   5.000000E+00   5.000000E+00   5.000000E+00   5.000000E+00   5.000000E+00   5.000000E+00   5.000000E+00   5.000000E+00   5.000000E+00   5.000000E+00   5.000000E+00   5.000000E+00   5.000000E+00   5.000000E+00   5.000000E+00   5.000000E+00   5.000000E+00   5.000000E+00   5.000000E+00   5.000000E+00   5.000000E+00   5.000000E+00   5.000000E+00   5.000000E+00   5.000000E+00   5.000000E+00   5.000000E+00   5.000000E+00   5.000000E+00   5.000000E+00   5.000000E+00   5.000000E+00   5.000000E+00   5.000000E+00   5.000000E+00
   5.000000E+00   5.000000E+00   5.000000E+00   5.000000E+00   5.000000E+00   5.000000E+00   5.000000E+00   5.000000E+00   5.000000E+00   5.000000E+00   5.000000E+00   5.000000E+00   5.000000E+00   5.000000E+00   5.000000E+00   5.000000E+00   5.000000E+00   5.000000E+00   5.000000E+00   5.000000E+00   5.000000E+00   5.000000E+00   5.000000E+00   5.000000E+00   5.000000E+00   5.000000E+00   5.000000E+00   5.000000E+00   5.000000E+00   5.000000E+00   5.000000E+00   5.000000E+00   5.000000E+00   5.000000E+00   5.000000E+00
   5.000000E+00   5.000000E+00   5.000000E+00   5.000000E+00   5.000000E+00   5.000000E+00   5.000000E+00   5.000000E+00   5.000000E+00   5.000000E+00   5.000000E+00   5.000000E+00   5.000000E+00   5.000000E+00   5.000000E+00   5.000000E+00   5.000000E+00   5.000000E+00   5.000000E+00   5.000000E+00   5.000000E+00   5.000000E+00   5.000000E+00   5.000000E+00   5.000000E+00   5.000000E+00   5.000000E+00   5.000000E+00   5.000000E+00   5.000000E+00   5.000000E+00   5.000000E+00   5.000000E+00   5.000000E+00   5.000000E+00
        31         1          (35E15.6)        -1 #dz layer 3
   5.000000E+00   5.000000E+00   5.000000E+00   5.000000E+00   5.000000E+00   5.000000E+00   5.000000E+00   5.000000E+00   5.000000E+00   5.000000E+00   5.000000E+00   5.000000E+00   5.000000E+00   5.000000E+00   5.000000E+00   5.000000E+00   5.000000E+00   5.000000E+00   5.000000E+00   5.000000E+00   5.000000E+00   5.000000E+00   5.000000E+00   5.000000E+00   5.000000E+00   5.000000E+00   5.000000E+00   5.000000E+00   5.000000E+00   5.000000E+00   5.000000E+00   5.000000E+00   5.000000E+00   5.000000E+00   5.000000E+00
   5.000000E+00   5.000000E+00   5.000000E+00   5.000000E+00   5.000000E+00   5.000000E+00   5.000000E+00   5.000000E+00   5.000000E+00   5.000000E+00   5.000000E+00   5.000000E+00   5.000000E+00   5.000000E+00   5.000000E+00   5.000000E+00   5.000000E+00   5.000000E+00   5.000000E+00   5.000000E+00   5.000000E+00   5.000000E+00   5.000000E+00   5.000000E+00   5.000000E+00   5.000000E+00   5.000000E+00   5.000000E+00   5.000000E+00   5.000000E+00   5.000000E+00   5.000000E+00   5.000000E+00   5.000000E+00   5.000000E+00
   5.000000E+00   5.000000E+00   5.000000E+00   5.000000E+00   5.000000E+00   5.000000E+00   5.000000E+00   5.000000E+00   5.000000E+00   5.000000E+00   5.000000E+00   5.000000E+00   5.000000E+00   5.000000E+00   5.000000E+00   5.000000E+00   5.000000E+00   5.000000E+00   5.000000E+00   5.000000E+00   5.000000E+00   5.000000E+00   5.000000E+00   5.000000E+00   5.000000E+00   5.000000E+00   5.000000E+00   5.000000E+00   5.000000E+00   5.000000E+00   5.000000E+00   5.000000E+00   5.000000E+00   5.000000E+00   5.000000E+00
        31         1          (35E15.6)        -1 #dz layer 4
   5.000000E+00   5.000000E+00   5.000000E+00   5.000000E+00   5.000000E+00   5.000000E+00   5.000000E+00   5.000000E+00   5.000000E+00   5.000000E+00   5.000000E+00   5.000000E+00   5.000000E+00   5.000000E+00   5.000000E+00   5.000000E+00   5.000000E+00   5.000000E+00   5.000000E+00   5.000000E+00   5.000000E+00   5.000000E+00   5.000000E+00   5.000000E+00   5.000000E+00   5.000000E+00   5.000000E+00   5.000000E+00   5.000000E+00   5.000000E+00   5.000000E+00   5.000000E+00   5.000000E+00   5.000000E+00   5.000000E+00
   5.000000E+00   5.000000E+00   5.000000E+00   5.000000E+00   5.000000E+00   5.000000E+00   5.000000E+00   5.000000E+00   5.000000E+00   5.000000E+00   5.000000E+00   5.000000E+00   5.000000E+00   5.000000E+00   5.000000E+00   5.000000E+00   5.000000E+00   5.000000E+00   5.000000E+00   5.000000E+00   5.000000E+00   5.000000E+00   5.000000E+00   5.000000E+00   5.000000E+00   5.000000E+00   5.000000E+00   5.000000E+00   5.000000E+00   5.000000E+00   5.000000E+00   5.000000E+00   5.000000E+00   5.000000E+00   5.000000E+00
   5.000000E+00   5.000000E+00   5.000000E+00   5.000000E+00   5.000000E+00   5.000000E+00   5.000000E+00   5.000000E+00   5.000000E+00   5.000000E+00   5.000000E+00   5.000000E+00   5.000000E+00   5.000000E+00   5.000000E+00   5.000000E+00   5.000000E+00   5.000000E+00   5.000000E+00   5.000000E+00   5.000000E+00   5.000000E+00   5.000000E+00   5.000000E+00   5.000000E+00   5.000000E+00   5.000000E+00   5.000000E+00   5.000000E+00   5.000000E+00   5.000000E+00   5.000000E+00   5.000000E+00   5.000000E+00   5.000000E+00
        31         1          (35E15.6)        -1 #dz layer 5
   5.000000E+00   5.000000E+00   5.000000E+00   5.000000E+00   5.000000E+00   5.000000E+00   5.000000E+00   5.000000E+00   5.000000E+00   5.000000E+00   5.000000E+00   5.000000E+00   5.000000E+00   5.000000E+00   5.000000E+00   5.000000E+00   5.000000E+00   5.000000E+00   5.000000E+00   5.000000E+00   5.000000E+00   5.000000E+00   5.000000E+00   5.000000E+00   5.000000E+00   5.000000E+00   5.000000E+00   5.000000E+00   5.000000E+00   5.000000E+00   5.000000E+00   5.000000E+00   5.000000E+00   5.000000E+00   5.000000E+00
   5.000000E+00   5.000000E+00   5.000000E+00   5.000000E+00   5.000000E+00   5.000000E+00   5.000000E+00   5.000000E+00   5.000000E+00   5.000000E+00   5.000000E+00   5.000000E+00   5.000000E+00   5.000000E+00   5.000000E+00   5.000000E+00   5.000000E+00   5.000000E+00   5.000000E+00   5.000000E+00   5.000000E+00   5.000000E+00   5.000000E+00   5.000000E+00   5.000000E+00   5.000000E+00   5.000000E+00   5.000000E+00   5.000000E+00   5.000000E+00   5.000000E+00   5.000000E+00   5.000000E+00   5.000000E+00   5.000000E+00
   5.000000E+00   5.000000E+00   5.000000E+00   5.000000E+00   5.000000E+00   5.000000E+00   5.000000E+00   5.000000E+00   5.000000E+00   5.000000E+00   5.000000E+00   5.000000E+00   5.000000E+00   5.000000E+00   5.000000E+00   5.000000E+00   5.000000E+00   5.000000E+00   5.000000E+00   5.000000E+00   5.000000E+00   5.000000E+00   5.000000E+00   5.000000E+00   5.000000E+00   5.000000E+00   5.000000E+00   5.000000E+00   5.000000E+00   5.000000E+00   5.000000E+00   5.000000E+00   5.000000E+00   5.000000E+00   5.000000E+00
        31         1          (35E15.6)        -1 #dz layer 6
   5.000000E+00   5.000000E+00   5.000000E+00   5.000000E+00   5.000000E+00   5.000000E+00   5.000000E+00   5.000000E+00   5.000000E+00   5.000000E+00   5.000000E+00   5.000000E+00   5.000000E+00   5.000000E+00   5.000000E+00   5.000000E+00   5.000000E+00   5.000000E+00   5.000000E+00   5.000000E+00   5.000000E+00   5.000000E+00   5.000000E+00   5.000000E+00   5.000000E+00   5.000000E+00   5.000000E+00   5.000000E+00   5.000000E+00   5.000000E+00   5.000000E+00   5.000000E+00   5.000000E+00   5.000000E+00   5.000000E+00
   5.000000E+00   5.000000E+00   5.000000E+00   5.000000E+00   5.000000E+00   5.000000E+00   5.000000E+00   5.000000E+00   5.000000E+00   5.000000E+00   5.000000E+00   5.000000E+00   5.000000E+00   5.000000E+00   5.000000E+00   5.000000E+00   5.000000E+00   5.000000E+00   5.000000E+00   5.000000E+00   5.000000E+00   5.000000E+00   5.000000E+00   5.000000E+00   5.000000E+00   5.000000E+00   5.000000E+00   5.000000E+00   5.000000E+00   5.000000E+00   5.000000E+00   5.000000E+00   5.000000E+00   5.000000E+00   5.000000E+00
   5.000000E+00   5.000000E+00   5.000000E+00   5.000000E+00   5.000000E+00   5.000000E+00   5.000000E+00   5.000000E+00   5.000000E+00   5.000000E+00   5.000000E+00   5.000000E+00   5.000000E+00   5.000000E+00   5.000000E+00   5.000000E+00   5.000000E+00   5.000000E+00   5.000000E+00   5.000000E+00   5.000000E+00   5.000000E+00   5.000000E+00   5.000000E+00   5.000000E+00   5.000000E+00   5.000000E+00   5.000000E+00   5.000000E+00   5.000000E+00   5.000000E+00   5.000000E+00   5.000000E+00   5.000000E+00   5.000000E+00
        31         1          (35E15.6)        -1 #dz layer 7
   5.000000E+00   5.000000E+00   5.000000E+00   5.000000E+00   5.000000E+00   5.000000E+00   5.000000E+00   5.000000E+00   5.000000E+00   5.000000E+00   5.000000E+00   5.000000E+00   5.000000E+00   5.000000E+00   5.000000E+00   5.000000E+00   5.000000E+00   5.000000E+00   5.000000E+00   5.000000E+00   5.000000E+00   5.000000E+00   5.000000E+00   5.000000E+00   5.000000E+00   5.000000E+00   5.000000E+00   5.000000E+00   5.000000E+00   5.000000E+00   5.000000E+00   5.000000E+00   5.000000E+00   5.000000E+00   5.000000E+00
   5.000000E+00   5.000000E+00   5.000000E+00   5.000000E+00   5.000000E+00   5.000000E+00   5.000000E+00   5.000000E+00   5.000000E+00   5.000000E+00   5.000000E+00   5.000000E+00   5.000000E+00   5.000000E+00   5.000000E+00   5.000000E+00   5.000000E+00   5.000000E+00   5.000000E+00   5.000000E+00   5.000000E+00   5.000000E+00   5.000000E+00   5.000000E+00   5.000000E+00   5.000000E+00   5.000000E+00   5.000000E+00   5.000000E+00   5.000000E+00   5.000000E+00   5.000000E+00   5.000000E+00   5.000000E+00   5.000000E+00
   5.000000E+00   5.000000E+00   5.000000E+00   5.000000E+00   5.000000E+00   5.000000E+00   5.000000E+00   5.000000E+00   5.000000E+00   5.000000E+00   5.000000E+00   5.000000E+00   5.000000E+00   5.000000E+00   5.000000E+00   5.000000E+00   5.000000E+00   5.000000E+00   5.000000E+00   5.000000E+00   5.000000E+00   5.000000E+00   5.000000E+00   5.000000E+00   5.000000E+00   5.000000E+00   5.000000E+00   5.000000E+00   5.000000E+00   5.000000E+00   5.000000E+00   5.000000E+00   5.000000E+00   5.000000E+00   5.000000E+00
        31         1          (35E15.6)        -1 #dz layer 8
   5.000000E+00   5.000000E+00   5.000000E+00   5.000000E+00   5.000000E+00   5.000000E+00   5.000000E+00   5.000000E+00   5.000000E+00   5.000000E+00   5.000000E+00   5.000000E+00   5.000000E+00   5.000000E+00   5.000000E+00   5.000000E+00   5.000000E+00   5.000000E+00   5.000000E+00   5.000000E+00   5.000000E+00   5.000000E+00   5.000000E+00   5.000000E+00   5.000000E+00   5.000000E+00   5.000000E+00   5.000000E+00   5.000000E+00   5.000000E+00   5.000000E+00   5.000000E+00   5.000000E+00   5.000000E+00   5.000000E+00
   5.000000E+00   5.000000E+00   5.000000E+00   5.000000E+00   5.000000E+00   5.000000E+00   5.000000E+00   5.000000E+00   5.000000E+00   5.000000E+00   5.000000E+00   5.000000E+00   5.000000E+00   5.000000E+00   5.000000E+00   5.000000E+00   5.000000E+00   5.000000E+00   5.000000E+00   5.000000E+00   5.000000E+00   5.000000E+00   5.000000E+00   5.000000E+00   5.000000E+00   5.000000E+00   5.000000E+00   5.000000E+00   5.000000E+00   5.000000E+00   5.000000E+00   5.000000E+00   5.000000E+00   5.000000E+00   5.000000E+00
   5.000000E+00   5.000000E+00   5.000000E+00   5.000000E+00   5.000000E+00   5.000000E+00   5.000000E+00   5.000000E+00   5.000000E+00   5.000000E+00   5.000000E+00   5.000000E+00   5.000000E+00   5.000000E+00   5.000000E+00   5.000000E+00   5.000000E+00   5.000000E+00   5.000000E+00   5.000000E+00   5.000000E+00   5.000000E+00   5.000000E+00   5.000000E+00   5.000000E+00   5.000000E+00   5.000000E+00   5.000000E+00   5.000000E+00   5.000000E+00   5.000000E+00   5.000000E+00   5.000000E+00   5.000000E+00   5.000000E+00
        31         1          (35E15.6)        -1 #dz layer 9
   5.000000E+00   5.000000E+00   5.000000E+00   5.000000E+00   5.000000E+00   5.000000E+00   5.000000E+00   5.000000E+00   5.000000E+00   5.000000E+00   5.000000E+00   5.000000E+00   5.000000E+00   5.000000E+00   5.000000E+00   5.000000E+00   5.000000E+00   5.000000E+00   5.000000E+00   5.000000E+00   5.000000E+00   5.000000E+00   5.000000E+00   5.000000E+00   5.000000E+00   5.000000E+00   5.000000E+00   5.000000E+00   5.000000E+00   5.000000E+00   5.000000E+00   5.000000E+00   5.000000E+00   5.000000E+00   5.000000E+00
   5.000000E+00   5.000000E+00   5.000000E+00   5.000000E+00   5.000000E+00   5.000000E+00   5.000000E+00   5.000000E+00   5.000000E+00   5.000000E+00   5.000000E+00   5.000000E+00   5.000000E+00   5.000000E+00   5.000000E+00   5.000000E+00   5.000000E+00   5.000000E+00   5.000000E+00   5.000000E+00   5.000000E+00   5.000000E+00   5.000000E+00   5.000000E+00   5.000000E+00   5.000000E+00   5.000000E+00   5.000000E+00   5.000000E+00   5.000000E+00   5.000000E+00   5.000000E+00   5.000000E+00   5.000000E+00   5.000000E+00
   5.000000E+00   5.000000E+00   5.000000E+00   5.000000E+00   5.000000E+00   5.000000E+00   5.000000E+00   5.000000E+00   5.000000E+00   5.000000E+00   5.000000E+00   5.000000E+00   5.000000E+00   5.000000E+00   5.000000E+00   5.000000E+00   5.000000E+00   5.000000E+00   5.000000E+00   5.000000E+00   5.000000E+00   5.000000E+00   5.000000E+00   5.000000E+00   5.000000E+00   5.000000E+00   5.000000E+00   5.000000E+00   5.000000E+00   5.000000E+00   5.000000E+00   5.000000E+00   5.000000E+00   5.000000E+00   5.000000E+00
        31         1          (35E15.6)        -1 #dz layer 10
   5.000000E+00   5.000000E+00   5.000000E+00   5.000000E+00   5.000000E+00   5.000000E+00   5.000000E+00   5.000000E+00   5.000000E+00   5.000000E+00   5.000000E+00   5.000000E+00   5.000000E+00   5.000000E+00   5.000000E+00   5.000000E+00   5.000000E+00   5.000000E+00   5.000000E+00   5.000000E+00   5.000000E+00   5.000000E+00   5.000000E+00   5.000000E+00   5.000000E+00   5.000000E+00   5.000000E+00   5.000000E+00   5.000000E+00   5.000000E+00   5.000000E+00   5.000000E+00   5.000000E+00   5.000000E+00   5.000000E+00
   5.000000E+00   5.000000E+00   5.000000E+00   5.000000E+00   5.000000E+00   5.000000E+00   5.000000E+00   5.000000E+00   5.000000E+00   5.000000E+00   5.000000E+00   5.000000E+00   5.000000E+00   5.000000E+00   5.000000E+00   5.000000E+00   5.000000E+00   5.000000E+00   5.000000E+00   5.000000E+00   5.000000E+00   5.000000E+00   5.000000E+00   5.000000E+00   5.000000E+00   5.000000E+00   5.000000E+00   5.000000E+00   5.000000E+00   5.000000E+00   5.000000E+00   5.000000E+00   5.000000E+00   5.000000E+00   5.000000E+00
   5.000000E+00   5.000000E+00   5.000000E+00   5.000000E+00   5.000000E+00   5.000000E+00   5.000000E+00   5.000000E+00   5.000000E+00   5.000000E+00   5.000000E+00   5.000000E+00   5.000000E+00   5.000000E+00   5.000000E+00   5.000000E+00   5.000000E+00   5.000000E+00   5.000000E+00   5.000000E+00   5.000000E+00   5.000000E+00   5.000000E+00   5.000000E+00   5.000000E+00   5.000000E+00   5.000000E+00   5.000000E+00   5.000000E+00   5.000000E+00   5.000000E+00   5.000000E+00   5.000000E+00   5.000000E+00   5.000000E+00
        31         1          (35E15.6)        -1 #prsity layer 1
   4.712389E+00   1.413717E+01   2.356194E+01   3.298672E+01   4.241150E+01   5.183628E+01   6.126105E+01   7.068584E+01   8.011061E+01   8.953539E+01   9.896017E+01   1.083849E+02   1.178097E+02   1.272345E+02   1.366593E+02   1.460841E+02   1.555088E+02   1.649336E+02   1.743584E+02   1.837832E+02   1.932079E+02   2.040533E+02   2.181683E+02   2.365384E+02   2.604464E+02   2.915620E+02   3.320578E+02   3.847617E+02   4.533540E+02   5.426246E+02   6.588073E+02   8.100151E+02   1.006807E+03   1.262925E+03   1.596254E+03
   4.712389E+00   1.413717E+01   2.356194E+01   3.298672E+01   4.241150E+01   5.183628E+01   6.126105E+01   7.068584E+01   8.011061E+01   8.953539E+01   9.896017E+01   1.083849E+02   1.178097E+02   1.272345E+02   1.366593E+02   1.460841E+02   1.555088E+02   1.649336E+02   1.743584E+02   1.837832E+02   1.932079E+02   2.040533E+02   2.181683E+02   2.365384E+02   2.604464E+02   2.915620E+02   3.320578E+02   3.847617E+02   4.533540E+02   5.426246E+02   6.588073E+02   8.100151E+02   1.006807E+03   1.262925E+03   1.596254E+03
   4.712389E+00   1.413717E+01   2.356194E+01   3.298672E+01   4.241150E+01   5.183628E+01   6.126105E+01   7.068584E+01   8.011061E+01   8.953539E+01   9.896017E+01   1.083849E+02   1.178097E+02   1.272345E+02   1.366593E+02   1.460841E+02   1.555088E+02   1.649336E+02   1.743584E+02   1.837832E+02   1.932079E+02   2.040533E+02   2.181683E+02   2.365384E+02   2.604464E+02   2.915620E+02   3.320578E+02   3.847617E+02   4.533540E+02   5.426246E+02   6.588073E+02   8.100151E+02   1.006807E+03   1.262925E+03   1.596254E+03
        31         1          (35E15.6)        -1 #prsity layer 2
   4.712389E+00   1.413717E+01   2.356194E+01   3.298672E+01   4.241150E+01   5.183628E+01   6.126105E+01   7.068584E+01   8.011061E+01   8.953539E+01   9.896017E+01   1.083849E+02   1.178097E+02   1.272345E+02   1.366593E+02   1.460841E+02   1.555088E+02   1.649336E+02   1.743584E+02   1.837832E+02   1.932079E+02   2.040533E+02   2.181683E+02   2.365384E+02   2.604464E+02   2.915620E+02   3.320578E+02   3.847617E+02   4.533540E+02   5.426246E+02   6.588073E+02   8.100151E+02   1.006807E+03   1.262925E+03   1.596254E+03
   4.712389E+00   1.413717E+01   2.356194E+01   3.298672E+01   4.241150E+01   5.183628E+01   6.126105E+01   7.068584E+01   8.011061E+01   8.953539E+01   9.896017E+01   1.083849E+02   1.178097E+02   1.272345E+02   1.366593E+02   1.460841E+02   1.555088E+02   1.649336E+02   1.743584E+02   1.837832E+02   1.932079E+02   2.040533E+02   2.181683E+02   2.365384E+02   2.604464E+02   2.915620E+02   3.320578E+02   3.847617E+02   4.533540E+02   5.426246E+02   6.588073E+02   8.100151E+02   1.006807E+03   1.262925E+03   1.596254E+03
   4.712389E+00   1.413717E+01   2.356194E+01   3.298672E+01   4.241150E+01   5.183628E+01   6.126105E+01   7.068584E+01   8.011061E+01   8.953539E+01   9.896017E+01   1.083849E+02   1.178097E+02   1.272345E+02   1.366593E+02   1.460841E+02   1.555088E+02   1.649336E+02   1.743584E+02   1.837832E+02   1.932079E+02   2.040533E+02   2.181683E+02   2.365384E+02   2.604464E+02   2.915620E+02   3.320578E+02   3.847617E+02   4.533540E+02   5.426246E+02   6.588073E+02   8.100151E+02   1.006807E+03   1.262925E+03   1.596254E+03
        31         1          (35E15.6)        -1 #prsity layer 3
   4.712389E+00   1.413717E+01   2.356194E+01   3.298672E+01   4.241150E+01   5.183628E+01   6.126105E+01   7.068584E+01   8.011061E+01   8.953539E+01   9.896017E+01   1.083849E+02   1.178097E+02   1.272345E+02   1.366593E+02   1.460841E+02   1.555088E+02   1.649336E+02   1.743584E+02   1.837832E+02   1.932079E+02   2.040533E+02   2.181683E+02   2.365384E+02   2.604464E+02   2.915620E+02   3.320578E+02   3.847617E+02   4.533540E+02   5.426246E+02   6.588073E+02   8.100151E+02   1.006807E+03   1.262925E+03   1.596254E+03
   4.712389E+00   1.413717E+01   2.356194E+01   3.298672E+01   4.241150E+01   5.183628E+01   6.126105E+01   7.068584E+01   8.011061E+01   8.953539E+01   9.896017E+01   1.083849E+02   1.178097E+02   1.272345E+02   1.366593E+02   1.460841E+02   1.555088E+02   1.649336E+02   1.743584E+02   1.837832E+02   1.932079E+02   2.040533E+02   2.181683E+02   2.365384E+02   2.604464E+02   2.915620E+02   3.320578E+02   3.847617E+02   4.533540E+02   5.426246E+02   6.588073E+02   8.100151E+02   1.006807E+03   1.262925E+03   1.596254E+03
   4.712389E+00   1.413717E+01   2.356194E+01   3.298672E+01   4.241150E+01   5.183628E+01   6.126105E+01   7.068584E+01   8.011061E+01   8.953539E+01   9.896017E+01   1.083849E+02   1.178097E+02   1.272345E+02   1.366593E+02   1.460841E+02   1.555088E+02   1.649336E+02   1.743584E+02   1.837832E+02   1.932079E+02   2.040533E+02   2.181683E+02   2.365384E+02   2.604464E+02   2.915620E+02   3.320578E+02   3.847617E+02   4.533540E+02   5.426246E+02   6.588073E+02   8.100151E+02   1.006807E+03   1.262925E+03   1.596254E+03
        31         1          (35E15.6)        -1 #prsity layer 4
   4.712389E+00   1.413717E+01   2.356194E+01   3.298672E+01   4.241150E+01   5.183628E+01   6.126105E+01   7.068584E+01   8.011061E+01   8.953539E+01   9.896017E+01   1.083849E+02   1.178097E+02   1.272345E+02   1.366593E+02   1.460841E+02   1.555088E+02   1.649336E+02   1.743584E+02   1.837832E+02   1.932079E+02   2.040533E+02   2.181683E+02   2.365384E+02   2.604464E+02   2.915620E+02   3.320578E+02   3.847617E+02   4.533540E+02   5.426246E+02   6.588073E+02   8.100151E+02   1.006807E+03   1.262925E+03   1.596254E+03
   4.712389E+00   1.413717E+01   2.356194E+01   3.298672E+01   4.241150E+01   5.183628E+01   6.126105E+01   7.068584E+01   8.011061E+01   8.953539E+01   9.896017E+01   1.083849E+02   1.178097E+02   1.272345E+02   1.366593E+02   1.460841E+02   1.555088E+02   1.649336E+02   1.743584E+02   1.837832E+02   1.932079E+02   2.040533E+02   2.181683E+02   2.365384E+02   2.604464E+02   2.915620E+02   3.320578E+02   3.847617E+02   4.533540E+02   5.426246E+02   6.588073E+02   8.100151E+02   1.006807E+03   1.262925E+03   1.596254E+03
   4.712389E+00   1.413717E+01   2.356194E+01   3.298672E+01   4.241150E+01   5.183628E+01   6.126105E+01   7.068584E+01   8.011061E+01   8.953539E+01   9.896017E+01   1.083849E+02   1.178097E+02   1.272345E+02   1.366593E+02   1.460841E+02   1.555088E+02   1.649336E+02   1.743584E+02   1.837832E+02   1.932079E+02   2.040533E+02   2.181683E+02   2.365384E+02   2.604464E+02   2.915620E+02   3.320578E+02   3.847617E+02   4.533540E+02   5.426246E+02   6.588073E+02   8.100151E+02   1.006807E+03   1.262925E+03   1.596254E+03
        31         1          (35E15.6)        -1 #prsity layer 5
   4.712389E+00   1.413717E+01   2.356194E+01   3.298672E+01   4.241150E+01   5.183628E+01   6.126105E+01   7.068584E+01   8.011061E+01   8.953539E+01   9.896017E+01   1.083849E+02   1.178097E+02   1.272345E+02   1.366593E+02   1.460841E+02   1.555088E+02   1.649336E+02   1.743584E+02   1.837832E+02   1.932079E+02   2.040533E+02   2.181683E+02   2.365384E+02   2.604464E+02   2.915620E+02   3.320578E+02   3.847617E+02   4.533540E+02   5.426246E+02   6.588073E+02   8.100151E+02   1.006807E+03   1.262925E+03   1.596254E+03
   4.712389E+00   1.413717E+01   2.356194E+01   3.298672E+01   4.241150E+01   5.183628E+01   6.126105E+01   7.068584E+01   8.011061E+01   8.953539E+01   9.896017E+01   1.083849E+02   1.178097E+02   1.272345E+02   1.366593E+02   1.460841E+02   1.555088E+02   1.649336E+02   1.743584E+02   1.837832E+02   1.932079E+02   2.040533E+02   2.181683E+02   2.365384E+02   2.604464E+02   2.915620E+02   3.320578E+02   3.847617E+02   4.533540E+02   5.426246E+02   6.588073E+02   8.100151E+02   1.006807E+03   1.262925E+03   1.596254E+03
   4.712389E+00   1.413717E+01   2.356194E+01   3.298672E+01   4.241150E+01   5.183628E+01   6.126105E+01   7.068584E+01   8.011061E+01   8.953539E+01   9.896017E+01   1.083849E+02   1.178097E+02   1.272345E+02   1.366593E+02   1.460841E+02   1.555088E+02   1.649336E+02   1.743584E+02   1.837832E+02   1.932079E+02   2.040533E+02   2.181683E+02   2.365384E+02   2.604464E+02   2.915620E+02   3.320578E+02   3.847617E+02   4.533540E+02   5.426246E+02   6.588073E+02   8.100151E+02   1.006807E+03   1.262925E+03   1.596254E+03
        31         1          (35E15.6)        -1 #prsity layer 6
   4.712389E+00   1.413717E+01   2.356194E+01   3.298672E+01   4.241150E+01   5.183628E+01   6.126105E+01   7.068584E+01   8.011061E+01   8.953539E+01   9.896017E+01   1.083849E+02   1.178097E+02   1.272345E+02   1.366593E+02   1.460841E+02   1.555088E+02   1.649336E+02   1.743584E+02   1.837832E+02   1.932079E+02   2.040533E+02   2.181683E+02   2.365384E+02   2.604464E+02   2.915620E+02   3.320578E+02   3.847617E+02   4.533540E+02   5.426246E+02   6.588073E+02   8.100151E+02   1.006807E+03   1.262925E+03   1.596254E+03
   4.712389E+00   1.413717E+01   2.356194E+01   3.298672E+01   4.241150E+01   5.183628E+01   6.126105E+01   7.068584E+01   8.011061E+01   8.953539E+01   9.896017E+01   1.083849E+02   1.178097E+02   1.272345E+02   1.366593E+02   1.460841E+02   1.555088E+02   1.649336E+02   1.743584E+02   1.837832E+02   1.932079E+02   2.040533E+02   2.181683E+02   2.365384E+02   2.604464E+02   2.915620E+02   3.320578E+02   3.847617E+02   4.533540E+02   5.426246E+02   6.588073E+02   8.100151E+02   1.006807E+03   1.262925E+03   1.596254E+03
   4.712389E+00   1.413717E+01   2.356194E+01   3.298672E+01   4.241150E+01   5.183628E+01   6.126105E+01   7.068584E+01   8.011061E+01   8.953539E+01   9.896017E+01   1.083849E+02   1.178097E+02   1.272345E+02   1.366593E+02   1.460841E+02   1.555088E+02   1.649336E+02   1.743584E+02   1.837832E+02   1.932079E+02   2.040533E+02   2.181683E+02   2.365384E+02   2.604464E+02   2.915620E+02   3.320578E+02   3.847617E+02   4.533540E+02   5.426246E+02   6.588073E+02   8.100151E+02   1.006807E+03   1.262925E+03   1.596254E+03
        31         1          (35E15.6)        -1 #prsity layer 7
   4.712389E+00   1.413717E+01   2.356194E+01   3.298672E+01   4.241150E+01   5.183628E+01   6.126105E+01   7.068584E+01   8.011061E+01   8.953539E+01   9.896017E+01   1.083849E+02   1.178097E+02   1.272345E+02   1.366593E+02   1.460841E+02   1.555088E+02   1.649336E+02   1.743584E+02   1.837832E+02   1.932079E+02   2.040533E+02   2.181683E+02   2.365384E+02   2.604464E+02   2.915620E+02   3.320578E+02   3.847617E+02   4.533540E+02   5.426246E+02   6.588073E+02   8.100151E+02   1.006807E+03   1.262925E+03   1.596254E+03
   4.712389E+00   1.413717E+01   2.356194E+01   3.298672E+01   4.241150E+01   5.183628E+01   6.126105E+01   7.068584E+01   8.011061E+01   8.953539E+01   9.896017E+01   1.083849E+02   1.178097E+02   1.272345E+02   1.366593E+02   1.460841E+02   1.555088E+02   1.649336E+02   1.743584E+02   1.837832E+02   1.932079E+02   2.040533E+02   2.181683E+02   2.365384E+02   2.604464E+02   2.915620E+02   3.320578E+02   3.847617E+02   4.533540E+02   5.426246E+02   6.588073E+02   8.100151E+02   1.006807E+03   1.262925E+03   1.596254E+03