# WEL package for SEAWAT generated by Flopy 3.4.3
        12         0 
        12         0 # stress period 1
         3         1         1      -322.33334
         4         1         1      -322.33334
         5         1         1      -322.33334
         6         1         1      -322.33334
         7         1         1      -322.33334
         8         1         1      -322.33334
         3         3         1       322.33334
         4         3         1       322.33334
         5         3         1       322.33334
         6         3         1       322.33334
         7         3         1       322.33334
         8         3         1       322.33334
