# BAS6 package for SEAWAT generated by Flopy 3.4.3
FREE
        13         1            (35I10)        -1 #ibound layer 1
        -1        -1        -1        -1        -1        -1        -1        -1        -1        -1        -1        -1        -1        -1        -1        -1        -1        -1        -1        -1        -1        -1        -1        -1        -1        -1        -1        -1        -1        -1        -1        -1        -1        -1        -1
        -1        -1        -1        -1        -1        -1        -1        -1        -1        -1        -1        -1        -1        -1        -1        -1        -1        -1        -1        -1        -1        -1        -1        -1        -1        -1        -1        -1        -1        -1        -1        -1        -1        -1        -1
        -1        -1        -1        -1        -1        -1        -1        -1        -1        -1        -1        -1        -1        -1        -1        -1        -1        -1        -1        -1        -1        -1        -1        -1        -1        -1        -1        -1        -1        -1        -1        -1        -1        -1        -1
        13         1            (35I10)        -1 #ibound layer 2
         1         1         1         1         1         1         1         1         1         1         1         1         1         1         1         1         1         1         1         1         1         1         1         1         1         1         1         1         1         1         1         1         1         1        -1
         0         0         0         0         0         0         0         0         0         0         0         0         0         0         0         0         0         0         0         0         0         0         0         0         0         0         0         0         0         0         0         0         0         0         0
         1         1         1         1         1         1         1         1         1         1         1         1         1         1         1         1         1         1         1         1         1         1         1         1         1         1         1         1         1         1         1         1         1         1        -1
        13         1            (35I10)        -1 #ibound layer 3
         1         1         1         1         1         1         1         1         1         1         1         1         1         1         1         1         1         1         1         1         1         1         1         1         1         1         1         1         1         1         1         1         1         1        -1
         0         0         0         0         0         0         0         0         0         0         0         0         0         0         0         0         0         0         0         0         0         0         0         0         0         0         0         0         0         0         0         0         0         0         0
         1         1         1         1         1         1         1         1         1         1         1         1         1         1         1         1         1         1         1         1         1         1         1         1         1         1         1         1         1         1         1         1         1         1        -1
        13         1            (35I10)        -1 #ibound layer 4
         1         1         1         1         1         1         1         1         1         1         1         1         1         1         1         1         1         1         1         1         1         1         1         1         1         1         1         1         1         1         1         1         1         1        -1
         0         0         0         0         0         0         0         0         0         0         0         0         0         0         0         0         0         0         0         0         0         0         0         0         0         0         0         0         0         0         0         0         0         0         0
         1         1         1         1         1         1         1         1         1         1         1         1         1         1         1         1         1         1         1         1         1         1         1         1         1         1         1         1         1         1         1         1         1         1        -1
        13         1            (35I10)        -1 #ibound layer 5
         1         1         1         1         1         1         1         1         1         1         1         1         1         1         1         1         1         1         1         1         1         1         1         1         1         1         1         1         1         1         1         1         1         1        -1
         0         0         0         0         0         0         0         0         0         0         0         0         0         0         0         0         0         0         0         0         0         0         0         0         0         0         0         0         0         0         0         0         0         0         0
         1         1         1         1         1         1         1         1         1         1         1         1         1         1         1         1         1         1         1         1         1         1         1         1         1         1         1         1         1         1         1         1         1         1        -1
        13         1            (35I10)        -1 #ibound layer 6
         1         1         1         1         1         1         1         1         1         1         1         1         1         1         1         1         1         1         1         1         1         1         1         1         1         1         1         1         1         1         1         1         1         1        -1
         0         0         0         0         0         0         0         0         0         0         0         0         0         0         0         0         0         0         0         0         0         0         0         0         0         0         0         0         0         0         0         0         0         0         0
         1         1         1         1         1         1         1         1         1         1         1         1         1         1         1         1         1         1         1         1         1         1         1         1         1         1         1         1         1         1         1         1         1         1        -1
        13         1            (35I10)        -1 #ibound layer 7
         1         1         1         1         1         1         1         1         1         1         1         1         1         1         1         1         1         1         1         1         1         1         1         1         1         1         1         1         1         1         1         1         1         1        -1
         0         0         0         0         0         0         0         0         0         0         0         0         0         0         0         0         0         0         0         0         0         0         0         0         0         0         0         0         0         0         0         0         0         0         0
         1         1         1         1         1         1         1         1         1         1         1         1         1         1         1         1         1         1         1         1         1         1         1         1         1         1         1         1         1         1         1         1         1         1        -1
        13         1            (35I10)        -1 #ibound layer 8
         1         1         1         1         1         1         1         1         1         1         1         1         1         1         1         1         1         1         1         1         1         1         1         1         1         1         1         1         1         1         1         1         1         1        -1
         0         0         0         0         0         0         0         0         0         0         0         0         0         0         0         0         0         0         0         0         0         0         0         0         0         0         0         0         0         0         0         0         0         0         0
         1         1         1         1         1         1         1         1         1         1         1         1         1         1         1         1         1         1         1         1         1         1         1         1         1         1         1         1         1         1         1         1         1         1        -1
        13         1            (35I10)        -1 #ibound layer 9
         1         1         1         1         1         1         1         1         1         1         1         1         1         1         1         1         1         1         1         1         1         1         1         1         1         1         1         1         1         1         1         1         1         1        -1
         0         0         0         0         0         0         0         0         0         0         0         0         0         0         0         0         0         0         0         0         0         0         0         0         0         0         0         0         0         0         0         0         0         0         0
         1         1         1         1         1         1         1         1         1         1         1         1         1         1         1         1         1         1         1         1         1         1         1         1         1         1         1         1         1         1         1         1         1         1        -1
        13         1            (35I10)        -1 #ibound layer 10
        -1        -1        -1        -1        -1        -1        -1        -1        -1        -1        -1        -1        -1        -1        -1        -1        -1        -1        -1        -1        -1        -1        -1        -1        -1        -1        -1        -1        -1        -1        -1        -1        -1        -1        -1
        -1        -1        -1        -1        -1        -1        -1        -1        -1        -1        -1        -1        -1        -1        -1        -1        -1        -1        -1        -1        -1        -1        -1        -1        -1        -1        -1        -1        -1        -1        -1        -1        -1        -1        -1
        -1        -1        -1        -1        -1        -1        -1        -1        -1        -1        -1        -1        -1        -1        -1        -1        -1        -1        -1        -1        -1        -1        -1        -1        -1        -1        -1        -1        -1        -1        -1        -1        -1        -1        -1
   -999.99
        13         1          (35E15.6)        -1 #strt layer 1
  -7.278387E-09  -7.278387E-09  -7.278387E-09  -7.278387E-09  -7.278387E-09  -7.278387E-09  -7.278387E-09  -7.278387E-09  -7.278387E-09  -7.278387E-09  -7.278387E-09  -7.278387E-09  -7.278387E-09  -7.278387E-09  -7.278387E-09  -7.278387E-09  -7.278387E-09  -7.278387E-09  -7.278387E-09  -7.278387E-09  -7.278387E-09  -7.278387E-09  -7.278387E-09  -7.278387E-09  -7.278387E-09  -7.278387E-09  -7.278387E-09  -7.278387E-09  -7.278387E-09  -7.278387E-09  -7.278387E-09  -7.278387E-09  -7.278387E-09  -7.278387E-09  -7.278387E-09
  -7.278387E-09  -7.278387E-09  -7.278387E-09  -7.278387E-09  -7.278387E-09  -7.278387E-09  -7.278387E-09  -7.278387E-09  -7.278387E-09  -7.278387E-09  -7.278387E-09  -7.278387E-09  -7.278387E-09  -7.278387E-09  -7.278387E-09  -7.278387E-09  -7.278387E-09  -7.278387E-09  -7.278387E-09  -7.278387E-09  -7.278387E-09  -7.278387E-09  -7.278387E-09  -7.278387E-09  -7.278387E-09  -7.278387E-09  -7.278387E-09  -7.278387E-09  -7.278387E-09  -7.278387E-09  -7.278387E-09  -7.278387E-09  -7.278387E-09  -7.278387E-09  -7.278387E-09
  -7.278387E-09  -7.278387E-09  -7.278387E-09  -7.278387E-09  -7.278387E-09  -7.278387E-09  -7.278387E-09  -7.278387E-09  -7.278387E-09  -7.278387E-09  -7.278387E-09  -7.278387E-09  -7.278387E-09  -7.278387E-09  -7.278387E-09  -7.278387E-09  -7.278387E-09  -7.278387E-09  -7.278387E-09  -7.278387E-09  -7.278387E-09  -7.278387E-09  -7.278387E-09  -7.278387E-09  -7.278387E-09  -7.278387E-09  -7.278387E-09  -7.278387E-09  -7.278387E-09  -7.278387E-09  -7.278387E-09  -7.278387E-09  -7.278387E-09  -7.278387E-09  -7.278387E-09
        13         1          (35E15.6)        -1 #strt layer 2
  -4.866289E-01  -4.385981E-01  -4.041346E-01  -3.760150E-01  -3.527319E-01  -3.331771E-01  -3.164891E-01  -3.020175E-01  -2.892778E-01  -2.779087E-01  -2.676380E-01  -2.582588E-01  -2.496132E-01  -2.415809E-01  -2.340717E-01  -2.270177E-01  -2.203674E-01  -2.140800E-01  -2.081218E-01  -2.024641E-01  -1.970820E-01  -1.912211E-01  -1.840491E-01  -1.753999E-01  -1.651424E-01  -1.532021E-01  -1.395818E-01  -1.243765E-01  -1.077807E-01  -9.008896E-02  -7.168441E-02  -5.301278E-02  -3.452497E-02  -1.657303E-02  -1.965120E-07
  -9.999900E+02  -9.999900E+02  -9.999900E+02  -9.999900E+02  -9.999900E+02  -9.999900E+02  -9.999900E+02  -9.999900E+02  -9.999900E+02  -9.999900E+02  -9.999900E+02  -9.999900E+02  -9.999900E+02  -9.999900E+02  -9.999900E+02  -9.999900E+02  -9.999900E+02  -9.999900E+02  -9.999900E+02  -9.999900E+02  -9.999900E+02  -9.999900E+02  -9.999900E+02  -9.999900E+02  -9.999900E+02  -9.999900E+02  -9.999900E+02  -9.999900E+02  -9.999900E+02  -9.999900E+02  -9.999900E+02  -9.999900E+02  -9.999900E+02  -9.999900E+02  -9.999900E+02
   5.274997E-01   4.691321E-01   4.277110E-01   3.943847E-01   3.672598E-01   3.448772E-01   3.260739E-01   3.099843E-01   2.959870E-01   2.836347E-01   2.725967E-01   2.626219E-01   2.535160E-01   2.451286E-01   2.373446E-01   2.300771E-01   2.232601E-01   2.168424E-01   2.107827E-01   2.050464E-01   1.996037E-01   1.936900E-01   1.864694E-01   1.777791E-01   1.674893E-01   1.555252E-01   1.418868E-01   1.266653E-01   1.100519E-01   9.233783E-02   7.390290E-02   5.518758E-02   3.663285E-02   1.854293E-02  -1.965120E-07
        13         1          (35E15.6)        -1 #strt layer 3
  -9.041528E-01  -6.999757E-01  -6.184977E-01  -5.662407E-01  -5.276219E-01  -4.969782E-01  -4.715906E-01  -4.499390E-01  -4.310838E-01  -4.143962E-01  -3.994234E-01  -3.858168E-01  -3.732987E-01  -3.616512E-01  -3.507139E-01  -3.403780E-01  -3.305736E-01  -3.212544E-01  -3.123861E-01  -3.039392E-01  -2.958869E-01  -2.871035E-01  -2.763447E-01  -2.633643E-01  -2.479693E-01  -2.300503E-01  -2.096117E-01  -1.867955E-01  -1.618935E-01  -1.353469E-01  -1.077309E-01  -7.971408E-02  -5.197306E-02  -2.503396E-02  -9.097578E-07
  -9.999900E+02  -9.999900E+02  -9.999900E+02  -9.999900E+02  -9.999900E+02  -9.999900E+02  -9.999900E+02  -9.999900E+02  -9.999900E+02  -9.999900E+02  -9.999900E+02  -9.999900E+02  -9.999900E+02  -9.999900E+02  -9.999900E+02  -9.999900E+02  -9.999900E+02  -9.999900E+02  -9.999900E+02  -9.999900E+02  -9.999900E+02  -9.999900E+02  -9.999900E+02  -9.999900E+02  -9.999900E+02  -9.999900E+02  -9.999900E+02  -9.999900E+02  -9.999900E+02  -9.999900E+02  -9.999900E+02  -9.999900E+02  -9.999900E+02  -9.999900E+02  -9.999900E+02
   1.014259E+00   7.632561E-01   6.635370E-01   6.006024E-01   5.552675E-01   5.200539E-01   4.911778E-01   4.666427E-01   4.453289E-01   4.265221E-01   4.097165E-01   3.945349E-01   3.806898E-01   3.679594E-01   3.561711E-01   3.451905E-01   3.349118E-01   3.252508E-01   3.161394E-01   3.075210E-01   2.993478E-01   2.904699E-01   2.796324E-01   2.665908E-01   2.511500E-01   2.331974E-01   2.127326E-01   1.898927E-01   1.649643E-01   1.383844E-01   1.107228E-01   8.264047E-02   5.479919E-02   2.765752E-02  -9.097578E-07
        13         1          (35E15.6)        -1 #strt layer 4
  -9.022030E-01  -6.993557E-01  -6.182002E-01  -5.660489E-01  -5.274537E-01  -4.967988E-01  -4.713889E-01  -4.497207E-01  -4.308704E-01  -4.142224E-01  -3.993303E-01  -3.858405E-01  -3.734587E-01  -3.619455E-01  -3.511224E-01  -3.408711E-01  -3.311211E-01  -3.218313E-01  -3.129740E-01  -3.045263E-01  -2.964664E-01  -2.876683E-01  -2.768893E-01  -2.638865E-01  -2.484705E-01  -2.305332E-01  -2.100785E-01  -1.872469E-01  -1.623292E-01  -1.357663E-01  -1.081333E-01  -8.009938E-02  -5.234119E-02  -2.537976E-02  -2.496321E-06
  -9.999900E+02  -9.999900E+02  -9.999900E+02  -9.999900E+02  -9.999900E+02  -9.999900E+02  -9.999900E+02  -9.999900E+02  -9.999900E+02  -9.999900E+02  -9.999900E+02  -9.999900E+02  -9.999900E+02  -9.999900E+02  -9.999900E+02  -9.999900E+02  -9.999900E+02  -9.999900E+02  -9.999900E+02  -9.999900E+02  -9.999900E+02  -9.999900E+02  -9.999900E+02  -9.999900E+02  -9.999900E+02  -9.999900E+02  -9.999900E+02  -9.999900E+02  -9.999900E+02  -9.999900E+02  -9.999900E+02  -9.999900E+02  -9.999900E+02  -9.999900E+02  -9.999900E+02
   1.014277E+00   7.631146E-01   6.632671E-01   6.002722E-01   5.549422E-01   5.197450E-01   4.908718E-01   4.663390E-01   4.450406E-01   4.262632E-01   4.094937E-01   3.943478E-01   3.805327E-01   3.678241E-01   3.560493E-01   3.450746E-01   3.347962E-01   3.251316E-01   3.160142E-01   3.073887E-01   2.992081E-01   2.903220E-01   2.794748E-01   2.664223E-01   2.509699E-01   2.330048E-01   2.125268E-01   1.896725E-01   1.647288E-01   1.381326E-01   1.104540E-01   8.235455E-02   5.449641E-02   2.734397E-02  -2.496321E-06
        13         1          (35E15.6)        -1 #strt layer 5
  -9.018647E-01  -6.993006E-01  -6.182529E-01  -5.661491E-01  -5.275677E-01  -4.969078E-01  -4.714855E-01  -4.498091E-01  -4.309664E-01  -4.143522E-01  -3.995249E-01  -3.861263E-01  -3.738489E-01  -3.624362E-01  -3.516954E-01  -3.415012E-01  -3.317834E-01  -3.225053E-01  -3.136452E-01  -3.051855E-01  -2.971093E-01  -2.882893E-01  -2.774834E-01  -2.644533E-01  -2.490138E-01  -2.310590E-01  -2.105920E-01  -1.877512E-01  -1.628254E-01  -1.362545E-01  -1.086134E-01  -8.057119E-02  -5.280450E-02  -2.582509E-02  -5.305458E-06
  -9.999900E+02  -9.999900E+02  -9.999900E+02  -9.999900E+02  -9.999900E+02  -9.999900E+02  -9.999900E+02  -9.999900E+02  -9.999900E+02  -9.999900E+02  -9.999900E+02  -9.999900E+02  -9.999900E+02  -9.999900E+02  -9.999900E+02  -9.999900E+02  -9.999900E+02  -9.999900E+02  -9.999900E+02  -9.999900E+02  -9.999900E+02  -9.999900E+02  -9.999900E+02  -9.999900E+02  -9.999900E+02  -9.999900E+02  -9.999900E+02  -9.999900E+02  -9.999900E+02  -9.999900E+02  -9.999900E+02  -9.999900E+02  -9.999900E+02  -9.999900E+02  -9.999900E+02
   1.013461E+00   7.622780E-01   6.624289E-01   5.994955E-01   5.542719E-01   5.191621E-01   4.903333E-01   4.658224E-01   4.445464E-01   4.257994E-01   4.090659E-01   3.939561E-01   3.801725E-01   3.674879E-01   3.557285E-01   3.447613E-01   3.344839E-01   3.248159E-01   3.156926E-01   3.070601E-01   2.988723E-01   2.899784E-01   2.791225E-01   2.660612E-01   2.506002E-01   2.326273E-01   2.121419E-01   1.892804E-01   1.643292E-01   1.377250E-01   1.100383E-01   8.193060E-02   5.406457E-02   2.691418E-02  -5.305458E-06
        13         1          (35E15.6)        -1 #strt layer 6
  -9.021230E-01  -6.995564E-01  -6.184983E-01  -5.663784E-01  -5.277769E-01  -4.970955E-01  -4.716554E-01  -4.499721E-01  -4.311427E-01  -4.145699E-01  -3.998139E-01  -3.865096E-01  -3.743343E-01  -3.630142E-01  -3.523439E-01  -3.421939E-01  -3.324964E-01  -3.232206E-01  -3.143511E-01  -3.058757E-01  -2.977813E-01  -2.889393E-01  -2.781079E-01  -2.650526E-01  -2.495929E-01  -2.316249E-01  -2.111513E-01  -1.883081E-01  -1.633821E-01  -1.368116E-01  -1.091711E-01  -8.112951E-02  -5.336307E-02  -2.637214E-02  -9.686441E-06
  -9.999900E+02  -9.999900E+02  -9.999900E+02  -9.999900E+02  -9.999900E+02  -9.999900E+02  -9.999900E+02  -9.999900E+02  -9.999900E+02  -9.999900E+02  -9.999900E+02  -9.999900E+02  -9.999900E+02  -9.999900E+02  -9.999900E+02  -9.999900E+02  -9.999900E+02  -9.999900E+02  -9.999900E+02  -9.999900E+02  -9.999900E+02  -9.999900E+02  -9.999900E+02  -9.999900E+02  -9.999900E+02  -9.999900E+02  -9.999900E+02  -9.999900E+02  -9.999900E+02  -9.999900E+02  -9.999900E+02  -9.999900E+02  -9.999900E+02  -9.999900E+02  -9.999900E+02
   1.012071E+00   7.608945E-01   6.610866E-01   5.982869E-01   5.532615E-01   5.183220E-01   4.895939E-01   4.651347E-01   4.438922E-01   4.251756E-01   4.084724E-01   3.933907E-01   3.796305E-01   3.669627E-01   3.552131E-01   3.442494E-01   3.339705E-01   3.242979E-01   3.151684E-01   3.065291E-01   2.983350E-01   2.894348E-01   2.785722E-01   2.655051E-01   2.500398E-01   2.320642E-01   2.115778E-01   1.887162E-01   1.637653E-01   1.371618E-01   1.094757E-01   8.136861E-02   5.350359E-02   2.636593E-02  -9.686441E-06
        13         1          (35E15.6)        -1 #strt layer 7
  -9.030799E-01  -7.002218E-01  -6.190378E-01  -5.668441E-01  -5.281961E-01  -4.974853E-01  -4.720297E-01  -4.503472E-01  -4.315394E-01  -4.150125E-01  -4.003243E-01  -3.870998E-01  -3.750006E-01  -3.637389E-01  -3.531021E-01  -3.429617E-01  -3.332563E-01  -3.239627E-01  -3.150714E-01  -3.065743E-01  -2.984601E-01  -2.895982E-01  -2.787463E-01  -2.656734E-01  -2.502014E-01  -2.322280E-01  -2.117553E-01  -1.889174E-01  -1.639991E-01  -1.374376E-01  -1.098064E-01  -8.177433E-02  -5.401700E-02  -2.702369E-02  -1.598845E-05
  -9.999900E+02  -9.999900E+02  -9.999900E+02  -9.999900E+02  -9.999900E+02  -9.999900E+02  -9.999900E+02  -9.999900E+02  -9.999900E+02  -9.999900E+02  -9.999900E+02  -9.999900E+02  -9.999900E+02  -9.999900E+02  -9.999900E+02  -9.999900E+02  -9.999900E+02  -9.999900E+02  -9.999900E+02  -9.999900E+02  -9.999900E+02  -9.999900E+02  -9.999900E+02  -9.999900E+02  -9.999900E+02  -9.999900E+02  -9.999900E+02  -9.999900E+02  -9.999900E+02  -9.999900E+02  -9.999900E+02  -9.999900E+02  -9.999900E+02  -9.999900E+02  -9.999900E+02
   1.010235E+00   7.590830E-01   6.593533E-01   5.967624E-01   5.520343E-01   5.173491E-01   4.887677E-01   4.643725E-01   4.431551E-01   4.244504E-01   4.077548E-01   3.926786E-01   3.789216E-01   3.662542E-01   3.545021E-01   3.435336E-01   3.332485E-01   3.235691E-01   3.144331E-01   3.057883E-01   2.975897E-01   2.886855E-01   2.778200E-01   2.647515E-01   2.492873E-01   2.313151E-01   2.108342E-01   1.879798E-01   1.630373E-01   1.364428E-01   1.087661E-01   8.066859E-02   5.281337E-02   2.569647E-02  -1.598845E-05
        13         1          (35E15.6)        -1 #strt layer 8
  -9.063699E-01  -7.021794E-01  -6.206762E-01  -5.683846E-01  -5.297233E-01  -4.990351E-01  -4.736153E-01  -4.519677E-01  -4.331824E-01  -4.166540E-01  -4.019303E-01  -3.886305E-01  -3.764199E-01  -3.650233E-01  -3.542460E-01  -3.439757E-01  -3.341607E-01  -3.247811E-01  -3.158262E-01  -3.072840E-01  -2.991389E-01  -2.902550E-01  -2.793880E-01  -2.663073E-01  -2.508343E-01  -2.328660E-01  -2.124032E-01  -1.895790E-01  -1.646766E-01  -1.381324E-01  -1.105194E-01  -8.250570E-02  -5.476639E-02  -2.778309E-02  -2.456066E-05
  -9.999900E+02  -9.999900E+02  -9.999900E+02  -9.999900E+02  -9.999900E+02  -9.999900E+02  -9.999900E+02  -9.999900E+02  -9.999900E+02  -9.999900E+02  -9.999900E+02  -9.999900E+02  -9.999900E+02  -9.999900E+02  -9.999900E+02  -9.999900E+02  -9.999900E+02  -9.999900E+02  -9.999900E+02  -9.999900E+02  -9.999900E+02  -9.999900E+02  -9.999900E+02  -9.999900E+02  -9.999900E+02  -9.999900E+02  -9.999900E+02  -9.999900E+02  -9.999900E+02  -9.999900E+02  -9.999900E+02  -9.999900E+02  -9.999900E+02  -9.999900E+02  -9.999900E+02
   1.008032E+00   7.570577E-01   6.575499E-01   5.953023E-01   5.509672E-01   5.165725E-01   4.881209E-01   4.637396E-01   4.424824E-01   4.237223E-01   4.069727E-01   3.918502E-01   3.780562E-01   3.653605E-01   3.535871E-01   3.426026E-01   3.323058E-01   3.226180E-01   3.134765E-01   3.048286E-01   2.966287E-01   2.877249E-01   2.768617E-01   2.637980E-01   2.483413E-01   2.303794E-01   2.099111E-01   1.870714E-01   1.621452E-01   1.355681E-01   1.079096E-01   7.983053E-02   5.199381E-02   2.490244E-02  -2.456066E-05
        13         1          (35E15.6)        -1 #strt layer 9
  -4.894343E-01  -4.416210E-01  -4.072944E-01  -3.792711E-01  -3.560613E-01  -3.365621E-01  -3.199150E-01  -3.054739E-01  -2.927599E-01  -2.814159E-01  -2.711686E-01  -2.618007E-01  -2.531388E-01  -2.450512E-01  -2.374461E-01  -2.302657E-01  -2.234735E-01  -2.170435E-01  -2.109528E-01  -2.051785E-01  -1.996975E-01  -1.937436E-01  -1.864804E-01  -1.777524E-01  -1.674365E-01  -1.554605E-01  -1.418233E-01  -1.266130E-01  -1.100181E-01  -9.232918E-02  -7.392803E-02  -5.525985E-02  -3.677448E-02  -1.879079E-02  -3.575221E-05
  -9.999900E+02  -9.999900E+02  -9.999900E+02  -9.999900E+02  -9.999900E+02  -9.999900E+02  -9.999900E+02  -9.999900E+02  -9.999900E+02  -9.999900E+02  -9.999900E+02  -9.999900E+02  -9.999900E+02  -9.999900E+02  -9.999900E+02  -9.999900E+02  -9.999900E+02  -9.999900E+02  -9.999900E+02  -9.999900E+02  -9.999900E+02  -9.999900E+02  -9.999900E+02  -9.999900E+02  -9.999900E+02  -9.999900E+02  -9.999900E+02  -9.999900E+02  -9.999900E+02  -9.999900E+02  -9.999900E+02  -9.999900E+02  -9.999900E+02  -9.999900E+02  -9.999900E+02
   5.250250E-01   4.667626E-01   4.253598E-01   3.919686E-01   3.647189E-01   3.422032E-01   3.233071E-01   3.071871E-01   2.932208E-01   2.809495E-01   2.700258E-01   2.601781E-01   2.511913E-01   2.428984E-01   2.351759E-01   2.279374E-01   2.211241E-01   2.146942E-01   2.086150E-01   2.028575E-01   1.973952E-01   1.914622E-01   1.842228E-01   1.755166E-01   1.652157E-01   1.532455E-01   1.396054E-01   1.243850E-01   1.077743E-01   9.006342E-02   7.163193E-02   5.292018E-02   3.436997E-02   1.631857E-02  -3.575221E-05
        13         1          (35E15.6)        -1 #strt layer 10
  -4.991231E-05  -4.991231E-05  -4.991231E-05  -4.991231E-05  -4.991231E-05  -4.991231E-05  -4.991231E-05  -4.991231E-05  -4.991231E-05  -4.991231E-05  -4.991231E-05  -4.991231E-05  -4.991231E-05  -4.991231E-05  -4.991231E-05  -4.991231E-05  -4.991231E-05  -4.991231E-05  -4.991231E-05  -4.991231E-05  -4.991231E-05  -4.991231E-05  -4.991231E-05  -4.991231E-05  -4.991231E-05  -4.991231E-05  -4.991231E-05  -4.991231E-05  -4.991231E-05  -4.991231E-05  -4.991231E-05  -4.991231E-05  -4.991231E-05  -4.991231E-05  -4.991231E-05
  -4.991231E-05  -4.991231E-05  -4.991231E-05  -4.991231E-05  -4.991231E-05  -4.991231E-05  -4.991231E-05  -4.991231E-05  -4.991231E-05  -4.991231E-05  -4.991231E-05  -4.991231E-05  -4.991231E-05  -4.991231E-05  -4.991231E-05  -4.991231E-05  -4.991231E-05  -4.991231E-05  -4.991231E-05  -4.991231E-05  -4.991231E-05  -4.991231E-05  -4.991231E-05  -4.991231E-05  -4.991231E-05  -4.991231E-05  -4.991231E-05  -4.991231E-05  -4.991231E-05  -4.991231E-05  -4.991231E-05  -4.991231E-05  -4.991231E-05  -4.991231E-05  -4.991231E-05
  -4.991231E-05  -4.991231E-05  -4.991231E-05  -4.991231E-05  -4.991231E-05  -4.991231E-05  -4.991231E-05  -4.991231E-05  -4.991231E-05  -4.991231E-05  -4.991231E-05  -4.991231E-05  -4.991231E-05  -4.991231E-05  -4.991231E-05  -4.991231E-05  -4.991231E-05  -4.991231E-05  -4.991231E-05  -4.991231E-05  -4.991231E-05  -4.991231E-05  -4.991231E-05  -4.991231E-05  -4.991231E-05  -4.991231E-05  -4.991231E-05  -4.991231E-05  -4.991231E-05  -4.991231E-05  -4.991231E-05  -4.991231E-05  -4.991231E-05  -4.991231E-05  -4.991231E-05
