# File generated by Flopy version 3.4.3 on 11/20/2023 at 09:02:18.
BEGIN options
  auxiliary  CONCENTRATION
END options

BEGIN dimensions
  MAXBOUND  1
END dimensions

BEGIN period  1
  1 1 400       0.00000000      35.00000000
END period  1

