# File generated by Flopy version 3.4.3 on 11/20/2023 at 09:02:18.
BEGIN options
  TIME_UNITS  days
END options

BEGIN dimensions
  NPER  1
END dimensions

BEGIN perioddata
      40.00000000  400       1.00000000
END perioddata

