# File generated by Flopy version 3.4.3 on 11/26/2023 at 22:04:27.
BEGIN options
END options

BEGIN timing
  TDIS6  modelrad.tdis
END timing

BEGIN models
  gwf6  modelradf.nam  modelradf
  gwt6  modelradt.nam  modelradt
END models

BEGIN exchanges
  GWF6-GWT6  modelrad.gwfgwt  modelradf  modelradt
END exchanges

BEGIN solutiongroup  1
  ims6  modelradf.ims  modelradf
  ims6  modelradt.ims  modelradt
END solutiongroup  1

