# File generated by Flopy version 3.4.3 on 11/26/2023 at 22:04:27.
BEGIN options
  BUDGET  FILEOUT  modelradt.cbc
  CONCENTRATION  FILEOUT  modelradt.ucn
END options

BEGIN period  1
  SAVE  CONCENTRATION  ALL
  SAVE  BUDGET  ALL
END period  1

