# File generated by Flopy version 3.4.3 on 11/26/2023 at 22:04:27.
BEGIN options
  BUDGET  FILEOUT  modelradf.cbc
  HEAD  FILEOUT  modelradf.hds
END options

BEGIN period  1
  SAVE  HEAD  ALL
  SAVE  BUDGET  ALL
END period  1

