# File generated by Flopy version 3.4.3 on 11/26/2023 at 22:04:27.
BEGIN options
  SAVE_FLOWS
END options

BEGIN packages
  DIS6  modelradf.dis  dis
  NPF6  modelradf.npf  npf
  IC6  modelradf.ic  ic
  WEL6  modelradf.wel  wel1
  CHD6  modelradf.chd  chd1
  OC6  modelradf.oc  oc
END packages

