# File generated by Flopy version 3.4.3 on 11/26/2023 at 22:04:27.
BEGIN griddata
  strt
    CONSTANT       0.00000000
END griddata

