# File generated by Flopy version 3.4.3 on 11/26/2023 at 22:04:27.
BEGIN options
END options

BEGIN packages
  OC6  modelradt.oc  oc
  DSP6  modelradt.dsp  dsp1
  ADV6  modelradt.adv  adv1
  SSM6  modelradt.ssm  ssm1
  MST6  modelradt.mst  mst
  DIS6  modelradt.dis  dis
  IC6  modelradt.ic  ic
END packages

