# File generated by Flopy version 3.4.3 on 11/26/2023 at 22:04:27.
BEGIN options
END options

BEGIN griddata
  diffc
    CONSTANT       0.00000000
  alh
    CONSTANT       0.50000000
  ath1
    CONSTANT       0.05000000
END griddata

