# File generated by Flopy version 3.4.3 on 11/26/2023 at 22:04:27.
BEGIN options
  TIME_UNITS  days
END options

BEGIN dimensions
  NPER  2
END dimensions

BEGIN perioddata
      30.00000000  300       1.00000000
      30.00000000  300       1.00000000
END perioddata

