# File generated by Flopy version 3.4.3 on 11/26/2023 at 22:18:42.
BEGIN options
END options

BEGIN timing
  TDIS6  modelbuoy.tdis
END timing

BEGIN models
  gwf6  modelbuoyf.nam  modelbuoyf
  gwt6  modelbuoyt.nam  modelbuoyt
END models

BEGIN exchanges
  GWF6-GWT6  modelbuoy.gwfgwt  modelbuoyf  modelbuoyt
END exchanges

BEGIN solutiongroup  1
  ims6  modelbuoyf.ims  modelbuoyf
  ims6  modelbuoyt.ims  modelbuoyt
END solutiongroup  1

