# File generated by Flopy version 3.4.3 on 11/26/2023 at 22:18:42.
BEGIN options
  SAVE_FLOWS
END options

BEGIN griddata
  porosity  LAYERED
    INTERNAL  FACTOR  1.0
           0.21991149       0.65973446       1.09955743       1.53938040       1.97920337       2.41902634       2.85884931       3.29867229       3.73849526       4.17831823       4.61814120       5.05796417       5.49778714       5.93761012       6.37743309       6.81725606       7.25707903       7.69690200       8.13672497       8.57654794       9.01637092       9.45619389       9.89601686      10.33583983      10.77566280      11.21548577      11.65530874      12.09513172      12.53495469      12.97477766      13.41460063      13.85442360      14.29424657      14.73406955      15.17389252      15.61371549      16.05353846      16.49336143      16.93318440      17.37300737      17.81283035      18.25265332      18.69247629      19.13229926      19.57212223      20.01194520      20.45176817      20.89159115      21.33141412      21.77123709      22.21106006      22.65088303      23.09070600      23.53052898      23.97035195      24.41017492      24.84999789      25.28982086      25.72964383      26.16946680      26.60928978      27.04911275      27.48893572      27.92875869      28.36858166      28.80840463      29.24822760      29.68805058      30.12787355      30.56769652      31.00751949      31.44734246      31.88716543      32.32698841      32.76681138      33.20663435      33.64645732      34.08628029      34.52610326      34.96592623      35.40574921      35.84557218      36.28539515      36.72521812      37.16504109      37.60486406      38.04468703      38.48451001      38.92433298      39.36415595      39.80397892      40.24380189      40.68362486      41.12344784      41.56327081      42.00309378      42.44291675      42.88273972      43.32256269      43.76238566      44.20220864      44.64203161      45.08185458      45.52167755      45.96150052      46.40132349      46.84114647      47.28096944      47.72079241      48.16061538      48.60043835      49.04026132      49.48008429      49.91990727      50.35973024      50.79955321      51.23937618      51.67919915      52.11902212      52.55884509      52.99866807      53.43849104      53.87831401      54.31813698      54.75795995      55.19778292      55.63760590      56.07742887      56.51725184      56.95707481      57.39689778      57.83672075      58.27654372      58.71636670      59.15618967      59.59601264      60.03583561      60.47565858      60.91548155      61.35530452      61.79512750      62.23495047      62.67477344      63.11459641      63.55441938      63.99424235      64.43406533      64.87388830      65.31371127      65.75353424      66.19335721      66.63318018      67.07300315      67.51282613      67.95264910      68.39247207      68.83229504      69.27211801      69.71194098      70.15176395      70.59158693      71.03140990      71.47123287      71.91105584      72.35087881      72.79070178      73.23052476      73.67034773      74.11017070      74.54999367      74.98981664      75.42963961      75.86946258      76.30928556      76.74910853      77.18893150      77.62875447      78.06857744      78.50840041      78.94822338      79.38804636      79.82786933      80.26769230      80.70751527      81.14733824      81.58716121      82.02698419      82.46680716      82.90663013      83.34645310      83.78627607      84.22609904      84.66592201      85.10574499      85.54556796      85.98539093      86.42521390      86.86503687      87.30485984      87.74468281      88.18450579      88.62432876      89.06415173      89.50397470      89.94379767      90.38362064      90.82344362      91.26326659      91.70308956      92.14291253      92.58273550      93.02255847      93.46238144      93.90220442      94.34202739      94.78185036      95.22167333      95.66149630      96.10131927      96.54114224      96.98096522      97.42078819      97.86061116      98.30043413      98.74025710      99.18008007      99.61990305     100.05972602     100.49954899     100.93937196     101.37919493     101.81901790     102.25884087     102.69866385     103.13848682     103.57830979     104.01813276     104.45795573     104.89777870     105.33760167     105.77742465     106.21724762     106.65707059     107.09689356     107.53671653     107.97653950     108.41636248     108.85618545     109.29600842     109.73583139     110.17565436     110.61547733     111.05530030     111.49512328     111.93494625     112.37476922     112.81459219     113.25441516     113.69423813     114.13406110     114.57388408     115.01370705     115.45353002     115.89335299     116.33317596     116.77299893     117.21282191     117.65264488     118.09246785     118.53229082     118.97211379     119.41193676     119.85175973     120.29158271     120.73140568     121.17122865     121.61105162     122.05087459     122.49069756     122.93052053     123.37034351     123.81016648     124.24998945     124.68981242     125.12963539     125.56945836     126.00928134     126.44910431     126.88892728     127.32875025     127.76857322     128.20839619     128.64821916     129.08804214     129.52786511     129.96768808     130.40751105     130.84733402     131.28715699     131.72697997     132.16680294     132.60662591     133.04644888     133.48627185     133.92609482     134.36591779     134.80574077     135.24556374     135.68538671     136.12520968     136.56503265     137.00485562     137.44467859     137.88450157     138.32432454     138.76414751     139.20397048     139.64379345     140.08361642     140.52343940     140.96326237     141.40308534     141.84290831     142.28273128     142.72255425     143.16237722     143.60220020     144.04202317     144.48184614     144.92166911     145.36149208     145.80131505     146.24113802     146.68096100     147.12078397     147.56060694     148.00042991     148.44025288     148.88007585     149.31989883     149.75972180     150.19954477     150.63936774     151.07919071     151.51901368     151.95883665     152.39865963     152.83848260     153.27830557     153.71812854     154.15795151     154.59777448     155.03759745     155.47742043     155.91724340     156.35706637     156.79688934     157.23671231     157.67653528     158.11635826     158.55618123     158.99600420     159.43582717     159.87565014     160.31547311     160.75529608     161.19511906     161.63494203     162.07476500     162.51458797     162.95441094     163.39423391     163.83405688     164.27387986     164.71370283     165.15352580     165.59334877     166.03317174     166.47299471     166.91281769     167.35264066     167.79246363     168.23228660     168.67210957     169.11193254     169.55175551     169.99157849     170.43140146     170.87122443     171.31104740     171.75087037     172.19069334     172.63051631     173.07033929     173.51016226     173.94998523     174.38980820     174.82963117     175.26945414     175.70927712
    INTERNAL  FACTOR  1.0
           0.21991149       0.65973446       1.09955743       1.53938040       1.97920337       2.41902634       2.85884931       3.29867229       3.73849526       4.17831823       4.61814120       5.05796417       5.49778714       5.93761012       6.37743309       6.81725606       7.25707903       7.69690200       8.13672497       8.57654794       9.01637092       9.45619389       9.89601686      10.33583983      10.77566280      11.21548577      11.65530874      12.09513172      12.53495469      12.97477766      13.41460063      13.85442360      14.29424657      14.73406955      15.17389252      15.61371549      16.05353846      16.49336143      16.93318440      17.37300737      17.81283035      18.25265332      18.69247629      19.13229926      19.57212223      20.01194520      20.45176817      20.89159115      21.33141412      21.77123709      22.21106006      22.65088303      23.09070600      23.53052898      23.97035195      24.41017492      24.84999789      25.28982086      25.72964383      26.16946680      26.60928978      27.04911275      27.48893572      27.92875869      28.36858166      28.80840463      29.24822760      29.68805058      30.12787355      30.56769652      31.00751949      31.44734246      31.88716543      32.32698841      32.76681138      33.20663435      33.64645732      34.08628029      34.52610326      34.96592623      35.40574921      35.84557218      36.28539515      36.72521812      37.16504109      37.60486406      38.04468703      38.48451001      38.92433298      39.36415595      39.80397892      40.24380189      40.68362486      41.12344784      41.56327081      42.00309378      42.44291675      42.88273972      43.32256269      43.76238566      44.20220864      44.64203161      45.08185458      45.52167755      45.96150052      46.40132349      46.84114647      47.28096944      47.72079241      48.16061538      48.60043835      49.04026132      49.48008429      49.91990727      50.35973024      50.79955321      51.23937618      51.67919915      52.11902212      52.55884509      52.99866807      53.43849104      53.87831401      54.31813698      54.75795995      55.19778292      55.63760590      56.07742887      56.51725184      56.95707481      57.39689778      57.83672075      58.27654372      58.71636670      59.15618967      59.59601264      60.03583561      60.47565858      60.91548155      61.35530452      61.79512750      62.23495047      62.67477344      63.11459641      63.55441938      63.99424235      64.43406533      64.87388830      65.31371127      65.75353424      66.19335721      66.63318018      67.07300315      67.51282613      67.95264910      68.39247207      68.83229504      69.27211801      69.71194098      70.15176395      70.59158693      71.03140990      71.47123287      71.91105584      72.35087881      72.79070178      73.23052476      73.67034773      74.11017070      74.54999367      74.98981664      75.42963961      75.86946258      76.30928556      76.74910853      77.18893150      77.62875447      78.06857744      78.50840041      78.94822338      79.38804636      79.82786933      80.26769230      80.70751527      81.14733824      81.58716121      82.02698419      82.46680716      82.90663013      83.34645310      83.78627607      84.22609904      84.66592201      85.10574499      85.54556796      85.98539093      86.42521390      86.86503687      87.30485984      87.74468281      88.18450579      88.62432876      89.06415173      89.50397470      89.94379767      90.38362064      90.82344362      91.26326659      91.70308956      92.14291253      92.58273550      93.02255847      93.46238144      93.90220442      94.34202739      94.78185036      95.22167333      95.66149630      96.10131927      96.54114224      96.98096522      97.42078819      97.86061116      98.30043413      98.74025710      99.18008007      99.61990305     100.05972602     100.49954899     100.93937196     101.37919493     101.81901790     102.25884087     102.69866385     103.13848682     103.57830979     104.01813276     104.45795573     104.89777870     105.33760167     105.77742465     106.21724762     106.65707059     107.09689356     107.53671653     107.97653950     108.41636248     108.85618545     109.29600842     109.73583139     110.17565436     110.61547733     111.05530030     111.49512328     111.93494625     112.37476922     112.81459219     113.25441516     113.69423813     114.13406110     114.57388408     115.01370705     115.45353002     115.89335299     116.33317596     116.77299893     117.21282191     117.65264488     118.09246785     118.53229082     118.97211379     119.41193676     119.85175973     120.29158271     120.73140568     121.17122865     121.61105162     122.05087459     122.49069756     122.93052053     123.37034351     123.81016648     124.24998945     124.68981242     125.12963539     125.56945836     126.00928134     126.44910431     126.88892728     127.32875025     127.76857322     128.20839619     128.64821916     129.08804214     129.52786511     129.96768808     130.40751105     130.84733402     131.28715699     131.72697997     132.16680294     132.60662591     133.04644888     133.48627185     133.92609482     134.36591779     134.80574077     135.24556374     135.68538671     136.12520968     136.56503265     137.00485562     137.44467859     137.88450157     138.32432454     138.76414751     139.20397048     139.64379345     140.08361642     140.52343940     140.96326237     141.40308534     141.84290831     142.28273128     142.72255425     143.16237722     143.60220020     144.04202317     144.48184614     144.92166911     145.36149208     145.80131505     146.24113802     146.68096100     147.12078397     147.56060694     148.00042991     148.44025288     148.88007585     149.31989883     149.75972180     150.19954477     150.63936774     151.07919071     151.51901368     151.95883665     152.39865963     152.83848260     153.27830557     153.71812854     154.15795151     154.59777448     155.03759745     155.47742043     155.91724340     156.35706637     156.79688934     157.23671231     157.67653528     158.11635826     158.55618123     158.99600420     159.43582717     159.87565014     160.31547311     160.75529608     161.19511906     161.63494203     162.07476500     162.51458797     162.95441094     163.39423391     163.83405688     164.27387986     164.71370283     165.15352580     165.59334877     166.03317174     166.47299471     166.91281769     167.35264066     167.79246363     168.23228660     168.67210957     169.11193254     169.55175551     169.99157849     170.43140146     170.87122443     171.31104740     171.75087037     172.19069334     172.63051631     173.07033929     173.51016226     173.94998523     174.38980820     174.82963117     175.26945414     175.70927712
    INTERNAL  FACTOR  1.0
           0.21991149       0.65973446       1.09955743       1.53938040       1.97920337       2.41902634       2.85884931       3.29867229       3.73849526       4.17831823       4.61814120       5.05796417       5.49778714       5.93761012       6.37743309       6.81725606       7.25707903       7.69690200       8.13672497       8.57654794       9.01637092       9.45619389       9.89601686      10.33583983      10.77566280      11.21548577      11.65530874      12.09513172      12.53495469      12.97477766      13.41460063      13.85442360      14.29424657      14.73406955      15.17389252      15.61371549      16.05353846      16.49336143      16.93318440      17.37300737      17.81283035      18.25265332      18.69247629      19.13229926      19.57212223      20.01194520      20.45176817      20.89159115      21.33141412      21.77123709      22.21106006      22.65088303      23.09070600      23.53052898      23.97035195      24.41017492      24.84999789      25.28982086      25.72964383      26.16946680      26.60928978      27.04911275      27.48893572      27.92875869      28.36858166      28.80840463      29.24822760      29.68805058      30.12787355      30.56769652      31.00751949      31.44734246      31.88716543      32.32698841      32.76681138      33.20663435      33.64645732      34.08628029      34.52610326      34.96592623      35.40574921      35.84557218      36.28539515      36.72521812      37.16504109      37.60486406      38.04468703      38.48451001      38.92433298      39.36415595      39.80397892      40.24380189      40.68362486      41.12344784      41.56327081      42.00309378      42.44291675      42.88273972      43.32256269      43.76238566      44.20220864      44.64203161      45.08185458      45.52167755      45.96150052      46.40132349      46.84114647      47.28096944      47.72079241      48.16061538      48.60043835      49.04026132      49.48008429      49.91990727      50.35973024      50.79955321      51.23937618      51.67919915      52.11902212      52.55884509      52.99866807      53.43849104      53.87831401      54.31813698      54.75795995      55.19778292      55.63760590      56.07742887      56.51725184      56.95707481      57.39689778      57.83672075      58.27654372      58.71636670      59.15618967      59.59601264      60.03583561      60.47565858      60.91548155      61.35530452      61.79512750      62.23495047      62.67477344      63.11459641      63.55441938      63.99424235      64.43406533      64.87388830      65.31371127      65.75353424      66.19335721      66.63318018      67.07300315      67.51282613      67.95264910      68.39247207      68.83229504      69.27211801      69.71194098      70.15176395      70.59158693      71.03140990      71.47123287      71.91105584      72.35087881      72.79070178      73.23052476      73.67034773      74.11017070      74.54999367      74.98981664      75.42963961      75.86946258      76.30928556      76.74910853      77.18893150      77.62875447      78.06857744      78.50840041      78.94822338      79.38804636      79.82786933      80.26769230      80.70751527      81.14733824      81.58716121      82.02698419      82.46680716      82.90663013      83.34645310      83.78627607      84.22609904      84.66592201      85.10574499      85.54556796      85.98539093      86.42521390      86.86503687      87.30485984      87.74468281      88.18450579      88.62432876      89.06415173      89.50397470      89.94379767      90.38362064      90.82344362      91.26326659      91.70308956      92.14291253      92.58273550      93.02255847      93.46238144      93.90220442      94.34202739      94.78185036      95.22167333      95.66149630      96.10131927      96.54114224      96.98096522      97.42078819      97.86061116      98.30043413      98.74025710      99.18008007      99.61990305     100.05972602     100.49954899     100.93937196     101.37919493     101.81901790     102.25884087     102.69866385     103.13848682     103.57830979     104.01813276     104.45795573     104.89777870     105.33760167     105.77742465     106.21724762     106.65707059     107.09689356     107.53671653     107.97653950     108.41636248     108.85618545     109.29600842     109.73583139     110.17565436     110.61547733     111.05530030     111.49512328     111.93494625     112.37476922     112.81459219     113.25441516     113.69423813     114.13406110     114.57388408     115.01370705     115.45353002     115.89335299     116.33317596     116.77299893     117.21282191     117.65264488     118.09246785     118.53229082     118.97211379     119.41193676     119.85175973     120.29158271     120.73140568     121.17122865     121.61105162     122.05087459     122.49069756     122.93052053     123.37034351     123.81016648     124.24998945     124.68981242     125.12963539     125.56945836     126.00928134     126.44910431     126.88892728     127.32875025     127.76857322     128.20839619     128.64821916     129.08804214     129.52786511     129.96768808     130.40751105     130.84733402     131.28715699     131.72697997     132.16680294     132.60662591     133.04644888     133.48627185     133.92609482     134.36591779     134.80574077     135.24556374     135.68538671     136.12520968     136.56503265     137.00485562     137.44467859     137.88450157     138.32432454     138.76414751     139.20397048     139.64379345     140.08361642     140.52343940     140.96326237     141.40308534     141.84290831     142.28273128     142.72255425     143.16237722     143.60220020     144.04202317     144.48184614     144.92166911     145.36149208     145.80131505     146.24113802     146.68096100     147.12078397     147.56060694     148.00042991     148.44025288     148.88007585     149.31989883     149.75972180     150.19954477     150.63936774     151.07919071     151.51901368     151.95883665     152.39865963     152.83848260     153.27830557     153.71812854     154.15795151     154.59777448     155.03759745     155.47742043     155.91724340     156.35706637     156.79688934     157.23671231     157.67653528     158.11635826     158.55618123     158.99600420     159.43582717     159.87565014     160.31547311     160.75529608     161.19511906     161.63494203     162.07476500     162.51458797     162.95441094     163.39423391     163.83405688     164.27387986     164.71370283     165.15352580     165.59334877     166.03317174     166.47299471     166.91281769     167.35264066     167.79246363     168.23228660     168.67210957     169.11193254     169.55175551     169.99157849     170.43140146     170.87122443     171.31104740     171.75087037     172.19069334     172.63051631     173.07033929     173.51016226     173.94998523     174.38980820     174.82963117     175.26945414     175.70927712
    INTERNAL  FACTOR  1.0
           0.21991149       0.65973446       1.09955743       1.53938040       1.97920337       2.41902634       2.85884931       3.29867229       3.73849526       4.17831823       4.61814120       5.05796417       5.49778714       5.93761012       6.37743309       6.81725606       7.25707903       7.69690200       8.13672497       8.57654794       9.01637092       9.45619389       9.89601686      10.33583983      10.77566280      11.21548577      11.65530874      12.09513172      12.53495469      12.97477766      13.41460063      13.85442360      14.29424657      14.73406955      15.17389252      15.61371549      16.05353846      16.49336143      16.93318440      17.37300737      17.81283035      18.25265332      18.69247629      19.13229926      19.57212223      20.01194520      20.45176817      20.89159115      21.33141412      21.77123709      22.21106006      22.65088303      23.09070600      23.53052898      23.97035195      24.41017492      24.84999789      25.28982086      25.72964383      26.16946680      26.60928978      27.04911275      27.48893572      27.92875869      28.36858166      28.80840463      29.24822760      29.68805058      30.12787355      30.56769652      31.00751949      31.44734246      31.88716543      32.32698841      32.76681138      33.20663435      33.64645732      34.08628029      34.52610326      34.96592623      35.40574921      35.84557218      36.28539515      36.72521812      37.16504109      37.60486406      38.04468703      38.48451001      38.92433298      39.36415595      39.80397892      40.24380189      40.68362486      41.12344784      41.56327081      42.00309378      42.44291675      42.88273972      43.32256269      43.76238566      44.20220864      44.64203161      45.08185458      45.52167755      45.96150052      46.40132349      46.84114647      47.28096944      47.72079241      48.16061538      48.60043835      49.04026132      49.48008429      49.91990727      50.35973024      50.79955321      51.23937618      51.67919915      52.11902212      52.55884509      52.99866807      53.43849104      53.87831401      54.31813698      54.75795995      55.19778292      55.63760590      56.07742887      56.51725184      56.95707481      57.39689778      57.83672075      58.27654372      58.71636670      59.15618967      59.59601264      60.03583561      60.47565858      60.91548155      61.35530452      61.79512750      62.23495047      62.67477344      63.11459641      63.55441938      63.99424235      64.43406533      64.87388830      65.31371127      65.75353424      66.19335721      66.63318018      67.07300315      67.51282613      67.95264910      68.39247207      68.83229504      69.27211801      69.71194098      70.15176395      70.59158693      71.03140990      71.47123287      71.91105584      72.35087881      72.79070178      73.23052476      73.67034773      74.11017070      74.54999367      74.98981664      75.42963961      75.86946258      76.30928556      76.74910853      77.18893150      77.62875447      78.06857744      78.50840041      78.94822338      79.38804636      79.82786933      80.26769230      80.70751527      81.14733824      81.58716121      82.02698419      82.46680716      82.90663013      83.34645310      83.78627607      84.22609904      84.66592201      85.10574499      85.54556796      85.98539093      86.42521390      86.86503687      87.30485984      87.74468281      88.18450579      88.62432876      89.06415173      89.50397470      89.94379767      90.38362064      90.82344362      91.26326659      91.70308956      92.14291253      92.58273550      93.02255847      93.46238144      93.90220442      94.34202739      94.78185036      95.22167333      95.66149630      96.10131927      96.54114224      96.98096522      97.42078819      97.86061116      98.30043413      98.74025710      99.18008007      99.61990305     100.05972602     100.49954899     100.93937196     101.37919493     101.81901790     102.25884087     102.69866385     103.13848682     103.57830979     104.01813276     104.45795573     104.89777870     105.33760167     105.77742465     106.21724762     106.65707059     107.09689356     107.53671653     107.97653950     108.41636248     108.85618545     109.29600842     109.73583139     110.17565436     110.61547733     111.05530030     111.49512328     111.93494625     112.37476922     112.81459219     113.25441516     113.69423813     114.13406110     114.57388408     115.01370705     115.45353002     115.89335299     116.33317596     116.77299893     117.21282191     117.65264488     118.09246785     118.53229082     118.97211379     119.41193676     119.85175973     120.29158271     120.73140568     121.17122865     121.61105162     122.05087459     122.49069756     122.93052053     123.37034351     123.81016648     124.24998945     124.68981242     125.12963539     125.56945836     126.00928134     126.44910431     126.88892728     127.32875025     127.76857322     128.20839619     128.64821916     129.08804214     129.52786511     129.96768808     130.40751105     130.84733402     131.28715699     131.72697997     132.16680294     132.60662591     133.04644888     133.48627185     133.92609482     134.36591779     134.80574077     135.24556374     135.68538671     136.12520968     136.56503265     137.00485562     137.44467859     137.88450157     138.32432454     138.76414751     139.20397048     139.64379345     140.08361642     140.52343940     140.96326237     141.40308534     141.84290831     142.28273128     142.72255425     143.16237722     143.60220020     144.04202317     144.48184614     144.92166911     145.36149208     145.80131505     146.24113802     146.68096100     147.12078397     147.56060694     148.00042991     148.44025288     148.88007585     149.31989883     149.75972180     150.19954477     150.63936774     151.07919071     151.51901368     151.95883665     152.39865963     152.83848260     153.27830557     153.71812854     154.15795151     154.59777448     155.03759745     155.47742043     155.91724340     156.35706637     156.79688934     157.23671231     157.67653528     158.11635826     158.55618123     158.99600420     159.43582717     159.87565014     160.31547311     160.75529608     161.19511906     161.63494203     162.07476500     162.51458797     162.95441094     163.39423391     163.83405688     164.27387986     164.71370283     165.15352580     165.59334877     166.03317174     166.47299471     166.91281769     167.35264066     167.79246363     168.23228660     168.67210957     169.11193254     169.55175551     169.99157849     170.43140146     170.87122443     171.31104740     171.75087037     172.19069334     172.63051631     173.07033929     173.51016226     173.94998523     174.38980820     174.82963117     175.26945414     175.70927712
    INTERNAL  FACTOR  1.0