# File generated by Flopy version 3.4.3 on 11/26/2023 at 22:18:42.
BEGIN options
  BUDGET  FILEOUT  modelbuoyt.cbc
  CONCENTRATION  FILEOUT  modelbuoyt.ucn
END options

BEGIN period  1
  SAVE  CONCENTRATION  ALL
  SAVE  BUDGET  ALL
END period  1

