# File generated by Flopy version 3.4.3 on 11/26/2023 at 22:18:42.
BEGIN options
END options

BEGIN dimensions
  NLAY  10
  NROW  1
  NCOL  400
END dimensions

BEGIN griddata
  delr
    CONSTANT       0.20000000
  delc
    CONSTANT       1.00000000
  top
    CONSTANT       0.00000000
  botm  LAYERED
    CONSTANT      -2.00000000
    CONSTANT      -4.00000000
    CONSTANT      -6.00000000
    CONSTANT      -8.00000000
    CONSTANT     -10.00000000
    CONSTANT     -12.00000000
    CONSTANT     -14.00000000
    CONSTANT     -16.00000000
    CONSTANT     -18.00000000
    CONSTANT     -20.00000000
END griddata

