# File generated by Flopy version 3.4.3 on 11/26/2023 at 22:18:42.
BEGIN options
END options

BEGIN packages
  DIS6  modelbuoyt.dis  dis
  MST6  modelbuoyt.mst  mst
  SSM6  modelbuoyt.ssm  ssm1
  ADV6  modelbuoyt.adv  adv1
  DSP6  modelbuoyt.dsp  dsp1
  OC6  modelbuoyt.oc  oc
  IC6  modelbuoyt.ic  ic
END packages

