# File generated by Flopy version 3.4.3 on 11/26/2023 at 22:18:42.
BEGIN options
  DENSEREF    1000.00000000
  DENSITY  FILEOUT  modelbuoyf.dst
END options

BEGIN dimensions
  NRHOSPECIES  1
END dimensions

BEGIN packagedata
  1       0.71430000       0.00000000  modelbuoyt  CONCENTRATION
END packagedata

