# File generated by Flopy version 3.4.3 on 11/26/2023 at 22:18:42.
BEGIN griddata
  strt  LAYERED
    INTERNAL  FACTOR  1.0
           0.01210642       0.01209866       0.01209425       0.01210006       0.01212188       0.01216267       0.01222463       0.01230937       0.01241812       0.01255192       0.01271171       0.01289841       0.01311296       0.01335640       0.01362985       0.01393458       0.01427196       0.01464356       0.01505109       0.01549645       0.01598176       0.01650931       0.01708164       0.01770152       0.01837199       0.01909635       0.01987820       0.02072146       0.02163039       0.02260960       0.02366413       0.02479939       0.02602129       0.02733620       0.02875103       0.03027326       0.03191095       0.03367286       0.03556841       0.03760781       0.03980207       0.04216308       0.04470368       0.04743769       0.05038005       0.05354684       0.05695539       0.06062439       0.06457392       0.06882563       0.07340276       0.07833035       0.08363526       0.08934636       0.09549464       0.10211332       0.10923805       0.11690699       0.12516103       0.13404390       0.14360235       0.15388635       0.16494924       0.17684789       0.18964296       0.20339899       0.21818471       0.23407312       0.25114177       0.26947292       0.28915377       0.31027661       0.33293904       0.35724419       0.38330083       0.41122364       0.44113328       0.47315664       0.50742692       0.54408381       0.58327356       0.62514911       0.66987018       0.71760330       0.76852188       0.82280617       0.88064331       0.94222725       1.00775872       1.07744507       1.15150024       1.23014451       1.31360441       1.40211245       1.49590691       1.59523159       1.70033554       1.81147271       1.92890171       2.05288544       2.18369076       2.32158816       2.46685145       2.61975739       2.78058541       2.94961730       3.12713697       3.31343016       3.50878428       3.71348821       3.92783221       4.15210775       4.38660755       4.63162548       4.88745660       5.15439715       5.43274460       5.72279757       6.02485582       6.33922011       6.66619191       7.00607303       7.35916500       7.72576827       8.10618110       8.50069819       8.90960893       9.33319538       9.77172988      10.22547241      10.69466774      11.17954239      11.68030157      12.19712612      12.73016947      13.27955438      13.84536788      14.42765459      15.02641042      15.64157470      16.27301922      16.92052958      17.58372447      18.26128602      18.95088589      19.65007854      20.35629694      21.06686705      21.77903138      22.48997619      23.19686120      23.89685143      24.58715078      25.26503677      25.92789570      26.57325731      27.19882808      27.80252195      28.38248755      28.93713092      29.46513294      29.96546084      30.43737351      30.88042050      31.29443499      31.67952113      32.03603634      32.36456960      32.66591641      32.94105145      33.19109996      33.41730866      33.62101700      33.80362954      33.96658998      34.11135731      34.23938444      34.35209944      34.45088964      34.53708843      34.61196478      34.67671531      34.73245880      34.78023272      34.82099176      34.85560800      34.88487235      34.90949731      34.93012041      34.94730853      34.96156252      34.97332224      34.98297164      34.99084396      34.99722676      35.00236678      35.00647457      35.00972887      35.01228055      35.01425638      35.01576230      35.01688640      35.01770154      35.01826769      35.01863389      35.01883973      35.01891895      35.01891012      35.01881628      35.01866111      35.01845922      35.01822169      35.01795711      35.01767221      35.01737228      35.01706146      35.01674299      35.01641945      35.01609286      35.01576482      35.01543661      35.01510924      35.01478356      35.01446023      35.01413980      35.01382273      35.01350939      35.01320010      35.01289513      35.01259469      35.01229899      35.01200819      35.01172241      35.01144178      35.01116638      35.01089629      35.01063157      35.01037226      35.01011841      35.00987001      35.00962709      35.00938964      35.00915765      35.00893109      35.00870993      35.00849414      35.00828367      35.00807847      35.00787848      35.00768364      35.00749387      35.00730912      35.00712929      35.00695432      35.00678411      35.00661859      35.00645766      35.00630124      35.00614922      35.00600153      35.00585805      35.00571871      35.00558340      35.00545203      35.00532449      35.00520070      35.00508056      35.00496396      35.00485083      35.00474105      35.00463454      35.00453121      35.00443096      35.00433370      35.00423934      35.00414780      35.00405898      35.00397281      35.00388919      35.00380805      35.00372931      35.00365288      35.00357870      35.00350668      35.00343674      35.00336882      35.00330285      35.00323875      35.00317645      35.00311590      35.00305703      35.00299978      35.00294408      35.00288989      35.00283715      35.00278579      35.00273577      35.00268704      35.00263955      35.00259324      35.00254808      35.00250401      35.00246100      35.00241900      35.00237797      35.00233787      35.00229867      35.00226032      35.00222279      35.00218606      35.00215008      35.00211482      35.00208025      35.00204636      35.00201309      35.00198044      35.00194837      35.00191686      35.00188589      35.00185543      35.00182546      35.00179596      35.00176691      35.00173829      35.00171008      35.00168227      35.00165484      35.00162776      35.00160104      35.00157464      35.00154857      35.00152280      35.00149732      35.00147212      35.00144719      35.00142251      35.00139809      35.00137390      35.00134994      35.00132619      35.00130266      35.00127933      35.00125619      35.00123324      35.00121048      35.00118788      35.00116545      35.00114319      35.00112108      35.00109912      35.00107730      35.00105563      35.00103410      35.00101269      35.00099142      35.00097027      35.00094924      35.00092833      35.00090754      35.00088685      35.00086628      35.00084581      35.00082545      35.00080519      35.00078503      35.00076496      35.00074500      35.00072513      35.00070535      35.00068567      35.00066608      35.00064658      35.00062718      35.00060786      35.00058863      35.00056949      35.00055042      35.00053141      35.00051243      35.00049343      35.00047438      35.00045517      35.00043572      35.00041589      35.00039554      35.00037452      35.00035267      35.00032989      35.00030608      35.00028127      35.00025556      35.00022915      35.00020238      35.00017568      35.00014956      35.00012453      35.00010113      35.00007980      35.00006103      35.00004668
    INTERNAL  FACTOR  1.0
           0.02624624       0.02624646       0.02626690       0.02631906       0.02641095       0.02654819       0.02673487       0.02697409       0.02726842       0.02762015       0.02803147       0.02850465       0.02904209       0.02964642       0.03032056       0.03106772       0.03189149       0.03279583       0.03378514       0.03486426       0.03603852       0.03731378       0.03869646       0.04019355       0.04181273       0.04356235       0.04545149       0.04749005       0.04968878       0.05205938       0.05461451       0.05736794       0.06033459       0.06353061       0.06697352       0.07068227       0.07467739       0.07898107       0.08361734       0.08861213       0.09399351       0.09979178       0.10603966       0.11277246       0.12002828       0.12784821       0.13627654       0.14536098       0.15515290       0.16570758       0.17708450       0.18934757       0.20256546       0.21681186       0.23216585       0.24871218       0.26654165       0.28575141       0.30644538       0.32873456       0.35273746       0.37858043       0.40639810       0.43633372       0.46853960       0.50317742       0.54041869       0.58044505       0.62344866       0.66963252       0.71921078       0.77240901       0.82946447       0.89062630       0.95615568       1.02632593       1.10142258       1.18174332       1.26759793       1.35930807       1.45720705       1.56163944       1.67296057       1.79153601       1.91774080       2.05195865       2.19458097       2.34600573       2.50663622       2.67687966       2.85714561       3.04784424       3.24938449       3.46217198       3.68660684       3.92308134       4.17197736       4.43366377       4.70849354       4.99680090       5.29889818       5.61507267       5.94558333       6.29065739       6.65048694       7.02522542       7.41498410       7.81982854       8.23977509       8.67478746       9.12477331       9.58958104      10.06899673      10.56274123      11.07046759      11.59175878      12.12612577      12.67300606      13.23176268      13.80168379      14.38198285      14.97179949      15.57020107      16.17618506      16.78868213      17.40656008      18.02862865      18.65364499      19.28032005      19.90732554      20.53330166      21.15686540      21.77661927      22.39116070      22.99909079      23.59900644      24.18929520      24.76817421      25.33398737      25.88520737      26.42044062      26.93843558      27.43812508      27.91906737      28.38135331      28.82506270      29.25027818      29.65709418      30.04562224      30.41599473      30.76836768      31.10292330      31.41987211      31.71945483      32.00194412      32.26764599      32.51690096      32.75008498      32.96760980      33.16992289      33.35750683      33.53087791      33.69058419      33.83720272      33.97133618      34.09360884      34.20466205      34.30514921      34.39573059      34.47706792      34.54981905      34.61463274      34.67214374      34.72296830      34.76770016      34.80690711      34.84112815      34.87087131      34.89661209      34.91879245      34.93782051      34.95407061      34.96788395      34.97956957      34.98940566      34.99764116      35.00449754      35.01017070      35.01483292      35.01863496      35.02170797      35.02416549      35.02610535      35.02761136      35.02875503      35.02959698      35.03018841      35.03057223      35.03078422      35.03085872      35.03082734      35.03069732      35.03049095      35.03022339      35.02990643      35.02954941      35.02915983      35.02874361      35.02830470      35.02784688      35.02737349      35.02688746      35.02639131      35.02588725      35.02537717      35.02486274      35.02434539      35.02382641      35.02330690      35.02278788      35.02227024      35.02175478      35.02124225      35.02073329      35.02022851      35.01972847      35.01923366      35.01874455      35.01826155      35.01778504      35.01731537      35.01685284      35.01639774      35.01595031      35.01551077      35.01507930      35.01465608      35.01424124      35.01383491      35.01343716      35.01304808      35.01266772      35.01229611      35.01193326      35.01157918      35.01123385      35.01089724      35.01056930      35.01024997      35.00993919      35.00963688      35.00934294      35.00905728      35.00877979      35.00851036      35.00824885      35.00799516      35.00774914      35.00751065      35.00727956      35.00705571      35.00683897      35.00662916      35.00642616      35.00622979      35.00603990      35.00585633      35.00567893      35.00550754      35.00534199      35.00518214      35.00502782      35.00487887      35.00473515      35.00459650      35.00446276      35.00433379      35.00420944      35.00408956      35.00397401      35.00386264      35.00375532      35.00365190      35.00355227      35.00345627      35.00336380      35.00327472      35.00318891      35.00310626      35.00302663      35.00294992      35.00287602      35.00280482      35.00273621      35.00267009      35.00260635      35.00254491      35.00248567      35.00242853      35.00237341      35.00232022      35.00226888      35.00221931      35.00217143      35.00212517      35.00208045      35.00203721      35.00199538      35.00195489      35.00191568      35.00187769      35.00184087      35.00180516      35.00177050      35.00173684      35.00170414      35.00167235      35.00164142      35.00161131      35.00158198      35.00155339      35.00152550      35.00149828      35.00147168      35.00144569      35.00142026      35.00139537      35.00137098      35.00134708      35.00132363      35.00130061      35.00127799      35.00125577      35.00123390      35.00121238      35.00119119      35.00117030      35.00114970      35.00112938      35.00110932      35.00108950      35.00106992      35.00105055      35.00103139      35.00101243      35.00099365      35.00097505      35.00095661      35.00093834      35.00092021      35.00090223      35.00088438      35.00086666      35.00084906      35.00083159      35.00081422      35.00079696      35.00077981      35.00076275      35.00074579      35.00072892      35.00071214      35.00069545      35.00067884      35.00066231      35.00064586      35.00062949      35.00061319      35.00059698      35.00058084      35.00056477      35.00054878      35.00053287      35.00051703      35.00050128      35.00048559      35.00046998      35.00045442      35.00043890      35.00042338      35.00040781      35.00039213      35.00037623      35.00036002      35.00034335      35.00032609      35.00030809      35.00028923      35.00026944      35.00024870      35.00022708      35.00020474      35.00018195      35.00015905      35.00013647      35.00011463      35.00009397      35.00007485      35.00005767      35.00004416
    INTERNAL  FACTOR  1.0
           0.05000366       0.05001545       0.05007229       0.05019497       0.05039777       0.05069076       0.05108131       0.05157514       0.05217708       0.05289151       0.05372273       0.05467523       0.05575381       0.05696376       0.05831090       0.05980173       0.06144343       0.06324399       0.06521221       0.06735780       0.06969144       0.07222483       0.07497079       0.07794332       0.08115770       0.08463054       0.08837995       0.09242560       0.09678884       0.10149283       0.10656270       0.11202565       0.11791115       0.12425108       0.13107991       0.13843492       0.14635638       0.15488776       0.16407599       0.17397169       0.18462944       0.19610805       0.20847084       0.22178598       0.23612678       0.25157205       0.26820646       0.28612087       0.30541277       0.32618663       0.34855434       0.37263561       0.39855844       0.42645952       0.45648469       0.48878940       0.52353915       0.56090995       0.60108873       0.64427382       0.69067531       0.74051546       0.79402908       0.85146382       0.91308050       0.97915327       1.04996988       1.12583170       1.20705381       1.29396491       1.38690717       1.48623595       1.59231946       1.70553819       1.82628426       1.95496065       2.09198015       2.23776429       2.39274193       2.55734776       2.73202056       2.91720130       3.11333091       3.32084801       3.54018625       3.77177158       4.01601923       4.27333050       4.54408940       4.82865908       5.12737815       5.44055680       5.76847286       6.11136781       6.46944268       6.84285399       7.23170975       7.63606548       8.05592042       8.49121386       8.94182181       9.40755381       9.88815022      10.38327983      10.89253792      11.41544490      11.95144538      12.49990795      13.06012554      13.63131645      14.21262608      14.80312944      15.40183426      16.00768496      16.61956727      17.23631355      17.85670879      18.47949725      19.10338965      19.72707092      20.34920829      20.96845988      21.58348345      22.19294539      22.79552978      23.38994740      23.97494470      24.54931248      25.11189429      25.66159441      26.19738472      26.71830459      27.22338706      27.71170305      28.18244802      28.63495683      29.06888137      29.48415129      29.88073827      30.25866482      30.61800959      30.95891018      31.28156448      31.58623040      31.87322353      32.14291368      32.39572102      32.63211178      32.85259355      33.05771031      33.24803736      33.42417612      33.58674899      33.73639428      33.87376132      33.99950564      34.11428458      34.21875297      34.31355920      34.39934163      34.47672521      34.54631854      34.60871123      34.66447159      34.71414471      34.75825081      34.79728400      34.83171130      34.86197205      34.88847755      34.91161104      34.93172788      34.94915606      34.96419681      34.97712556      34.98819288      34.99762570      35.00562854      35.01238491      35.01805865      35.02279541      35.02672404      35.02995805      35.03259694      35.03472760      35.03642551      35.03775601      35.03877541      35.03953194      35.04006670      35.04041443      35.04060390      35.04066595      35.04062431      35.04048530      35.04026736      35.03998379      35.03964529      35.03926063      35.03883700      35.03837979      35.03789265      35.03737943      35.03684371      35.03628874      35.03571740      35.03513227      35.03453559      35.03392939      35.03331544      35.03269536      35.03207059      35.03144247      35.03081219      35.03018089      35.02954959      35.02891924      35.02829075      35.02766493      35.02704257      35.02642439      35.02581106      35.02520322      35.02460144      35.02400627      35.02341821      35.02283772      35.02226522      35.02170109      35.02114569      35.02059932      35.02006228      35.01953479      35.01901709      35.01850935      35.01801174      35.01752439      35.01704740      35.01658085      35.01612481      35.01567929      35.01524433      35.01481991      35.01440600      35.01400258      35.01360957      35.01322691      35.01285450      35.01249226      35.01214007      35.01179780      35.01146533      35.01114251      35.01082920      35.01052522      35.01023044      35.00994466      35.00966772      35.00939944      35.00913964      35.00888813      35.00864471      35.00840921      35.00818143      35.00796118      35.00774825      35.00754247      35.00734362      35.00715153      35.00696599      35.00678682      35.00661383      35.00644683      35.00628563      35.00613005      35.00597991      35.00583502      35.00569523      35.00556034      35.00543020      35.00530463      35.00518347      35.00506656      35.00495375      35.00484489      35.00473981      35.00463839      35.00454047      35.00444592      35.00435460      35.00426639      35.00418115      35.00409876      35.00401910      35.00394205      35.00386751      35.00379536      35.00372550      35.00365782      35.00359223      35.00352863      35.00346693      35.00340703      35.00334886      35.00329233      35.00323737      35.00318388      35.00313181      35.00308108      35.00303162      35.00298337      35.00293626      35.00289024      35.00284525      35.00280123      35.00275813      35.00271590      35.00267450      35.00263386      35.00259397      35.00255476      35.00251621      35.00247826      35.00244090      35.00240408      35.00236777      35.00233195      35.00229657      35.00226162      35.00222707      35.00219289      35.00215906      35.00212556      35.00209237      35.00205946      35.00202683      35.00199445      35.00196230      35.00193037      35.00189866      35.00186713      35.00183579      35.00180462      35.00177360      35.00174274      35.00171202      35.00168142      35.00165096      35.00162060      35.00159036      35.00156022      35.00153018      35.00150024      35.00147038      35.00144060      35.00141091      35.00138129      35.00135175      35.00132228      35.00129288      35.00126355      35.00123428      35.00120508      35.00117595      35.00114687      35.00111786      35.00108892      35.00106003      35.00103122      35.00100246      35.00097378      35.00094517      35.00091663      35.00088816      35.00085977      35.00083144      35.00080318      35.00077495      35.00074671      35.00071843      35.00069001      35.00066134      35.00063230      35.00060270      35.00057236      35.00054109      35.00050869      35.00047503      35.00044005      35.00040378      35.00036640      35.00032824      35.00028976      35.00025156      35.00021432      35.00017873      35.00014544      35.00011503      35.00008806      35.00006717
    INTERNAL  FACTOR  1.0
           0.07990725       0.07992883       0.08002436       0.08022686       0.08055898       0.08103669       0.08167169       0.08247309       0.08344853       0.08460502       0.08594945       0.08748895       0.08923123       0.09118471       0.09335875       0.09576368       0.09841102       0.10131347       0.10448509       0.10794133       0.11169919       0.11577727       0.12019590       0.12497727       0.13014556       0.13572704       0.14175028       0.14824624       0.15524850       0.16279341       0.17092032       0.17967174       0.18909360       0.19923551       0.21015096       0.22189761       0.23453762       0.24813787       0.26277034       0.27851243       0.29544730       0.31366421       0.33325896       0.35433422       0.37700000       0.40137401       0.42758212       0.45575881       0.48604759       0.51860149       0.55358346       0.59116687       0.63153592       0.67488611       0.72142463       0.77137076       0.82495627       0.88242573       0.94403682       1.01006057       1.08078156       1.15649804       1.23752198       1.32417902       1.41680833       1.51576239       1.62140658       1.73411871       1.85428838       1.98231614       2.11861257       2.26359712       2.41769677       2.58134453       2.75497767       2.93903581       3.13395876       3.34018414       3.55814477       3.78826593       4.03096227       4.28663465       4.55566669       4.83842126       5.13523671       5.44642302       5.77225786       6.11298258       6.46879814       6.83986107       7.22627949       7.62810921       8.04534998       8.47794192       8.92576228       9.38862237       9.86626499      10.35836216      10.86451336      11.38424428      11.91700612      12.46217546      13.01905481      13.58687375      14.16479078      14.75189591      15.34721382      15.94970785      16.55828460      17.17179915      17.78906100      18.40884049      19.02987585      19.65088066      20.27055172      20.88757731      21.50064561      22.10845339      22.70971468      23.30316951      23.88759246      24.46180103      25.02466372      25.57510765      26.11212578      26.63478346      27.14222435      27.63367548      28.10844884      28.56591300      29.00550407      29.42677790      29.82948101      30.21351049      30.57883872      30.92551470      31.25366377      31.56348542      31.85524984      32.12929386      32.38601615      32.62587204      32.84936786      33.05705497      33.24952362      33.42739664      33.59132318      33.74197247      33.88002781      34.00618076      34.12112559      34.22555410      34.32015086      34.40558877      34.48252520      34.55159845      34.61342482      34.66859603      34.71767720      34.76120520      34.79968754      34.83360149      34.86339382      34.88948064      34.91224775      34.93205113      34.94921778      34.96404670      34.97681003      34.98775440      34.99710228      35.00505352      35.01178683      35.01746134      35.02221814      35.02618180      35.02946182      35.03215409      35.03434222      35.03609883      35.03748678      35.03856024      35.03936575      35.03994307      35.04032589      35.04054244      35.04062122      35.04059229      35.04045685      35.04023574      35.03994273      35.03958934      35.03918431      35.03873429      35.03824557      35.03772347      35.03717246      35.03659638      35.03599850      35.03538170      35.03474849      35.03410111      35.03344158      35.03277173      35.03209326      35.03140771      35.03071654      35.03002110      35.02932267      35.02862246      35.02792159      35.02722115      35.02652216      35.02582558      35.02513234      35.02444329      35.02375925      35.02308099      35.02240924      35.02174466      35.02108790      35.02043953      35.01980010      35.01917011      35.01855002      35.01794024      35.01734115      35.01675310      35.01617637      35.01561124      35.01505794      35.01451666      35.01398756      35.01347079      35.01296645      35.01247461      35.01199532      35.01152861      35.01107448      35.01063291      35.01020385      35.00978724      35.00938300      35.00899103      35.00861122      35.00824345      35.00788755      35.00754339      35.00721079      35.00688958      35.00657957      35.00628056      35.00599235      35.00571473      35.00544749      35.00519040      35.00494324      35.00470577      35.00447778      35.00425902      35.00404926      35.00384826      35.00365578      35.00347158      35.00329543      35.00312710      35.00296633      35.00281290      35.00266659      35.00252715      35.00239435      35.00226799      35.00214782      35.00203364      35.00192523      35.00182237      35.00172487      35.00163251      35.00154510      35.00146243      35.00138433      35.00131060      35.00124106      35.00117552      35.00111383      35.00105581      35.00100129      35.00095011      35.00090213      35.00085718      35.00081512      35.00077582      35.00073912      35.00070491      35.00067306      35.00064342      35.00061590      35.00059037      35.00056673      35.00054486      35.00052466      35.00050603      35.00048888      35.00047312      35.00045866      35.00044541      35.00043330      35.00042224      35.00041217      35.00040301      35.00039470      35.00038717      35.00038037      35.00037423      35.00036870      35.00036372      35.00035926      35.00035525      35.00035166      35.00034845      35.00034557      35.00034298      35.00034066      35.00033856      35.00033666      35.00033493      35.00033334      35.00033186      35.00033048      35.00032916      35.00032789      35.00032664      35.00032541      35.00032417      35.00032290      35.00032160      35.00032025      35.00031884      35.00031736      35.00031580      35.00031415      35.00031240      35.00031055      35.00030859      35.00030652      35.00030432      35.00030200      35.00029956      35.00029699      35.00029428      35.00029145      35.00028848      35.00028538      35.00028215      35.00027878      35.00027529      35.00027166      35.00026791      35.00026403      35.00026003      35.00025591      35.00025167      35.00024731      35.00024285      35.00023827      35.00023359      35.00022881      35.00022394      35.00021897      35.00021392      35.00020879      35.00020358      35.00019830      35.00019295      35.00018754      35.00018207      35.00017654      35.00017096      35.00016532      35.00015961      35.00015382      35.00014792      35.00014189      35.00013569      35.00012928      35.00012262      35.00011566      35.00010839      35.00010078      35.00009285      35.00008463      35.00007620      35.00006766      35.00005914      35.00005078      35.00004273      35.00003513      35.00002810      35.00002174      35.00001666
    INTERNAL  FACTOR  1.0