# File generated by Flopy version 3.4.3 on 11/26/2023 at 22:18:42.
BEGIN options
  SAVE_FLOWS
END options

BEGIN packages
  DIS6  modelbuoyf.dis  dis
  NPF6  modelbuoyf.npf  npf
  IC6  modelbuoyf.ic  ic
  WEL6  modelbuoyf.wel  wel1
  CHD6  modelbuoyf.chd  chd1
  BUY6  modelbuoyf.buy  buy1
  OC6  modelbuoyf.oc  oc
END packages

