# File generated by Flopy version 3.4.3 on 11/26/2023 at 22:18:42.
BEGIN options
  auxiliary  CONCENTRATION
END options

BEGIN dimensions
  MAXBOUND  10
END dimensions

BEGIN period  1
  1 1 400       0.00000000      35.00000000
  2 1 400       0.00000000      35.00000000
  3 1 400       0.00000000      35.00000000
  4 1 400       0.00000000      35.00000000
  5 1 400       0.00000000      35.00000000
  6 1 400       0.00000000      35.00000000
  7 1 400       0.00000000      35.00000000
  8 1 400       0.00000000      35.00000000
  9 1 400       0.00000000      35.00000000
  10 1 400       0.00000000      35.00000000
END period  1

BEGIN period  2
  1 1 400       0.00000000      35.00000000
  2 1 400       0.00000000      35.00000000
  3 1 400       0.00000000      35.00000000
  4 1 400       0.00000000      35.00000000
  5 1 400       0.00000000      35.00000000
  6 1 400       0.00000000      35.00000000
  7 1 400       0.00000000      35.00000000
  8 1 400       0.00000000      35.00000000
  9 1 400       0.00000000      35.00000000
  10 1 400       0.00000000      35.00000000
END period  2

