# File generated by Flopy version 3.4.3 on 11/26/2023 at 22:18:42.
BEGIN options
END options

BEGIN linear
  LINEAR_ACCELERATION  bicgstab
END linear

