# File generated by Flopy version 3.4.3 on 11/26/2023 at 22:18:42.
BEGIN options
  SAVE_FLOWS
END options

BEGIN griddata
  icelltype
    CONSTANT  0
  k  LAYERED
    INTERNAL  FACTOR  1.0
          12.56637061      37.69911184      62.83185307      87.96459430     113.09733553     138.23007676     163.36281799     188.49555922     213.62830044     238.76104167     263.89378290     289.02652413     314.15926536     339.29200659     364.42474782     389.55748905     414.69023027     439.82297150     464.95571273     490.08845396     515.22119519     540.35393642     565.48667765     590.61941887     615.75216010     640.88490133     666.01764256     691.15038379     716.28312502     741.41586625     766.54860748     791.68134870     816.81408993     841.94683116     867.07957239     892.21231362     917.34505485     942.47779608     967.61053731     992.74327853    1017.87601976    1043.00876099    1068.14150222    1093.27424345    1118.40698468    1143.53972591    1168.67246714    1193.80520836    1218.93794959    1244.07069082    1269.20343205    1294.33617328    1319.46891451    1344.60165574    1369.73439697    1394.86713819    1419.99987942    1445.13262065    1470.26536188    1495.39810311    1520.53084434    1545.66358557    1570.79632679    1595.92906802    1621.06180925    1646.19455048    1671.32729171    1696.46003294    1721.59277417    1746.72551540    1771.85825662    1796.99099785    1822.12373908    1847.25648031    1872.38922154    1897.52196277    1922.65470400    1947.78744523    1972.92018645    1998.05292768    2023.18566891    2048.31841014    2073.45115137    2098.58389260    2123.71663383    2148.84937506    2173.98211628    2199.11485751    2224.24759874    2249.38033997    2274.51308120    2299.64582243    2324.77856366    2349.91130489    2375.04404611    2400.17678734    2425.30952857    2450.44226980    2475.57501103    2500.70775226    2525.84049349    2550.97323471    2576.10597594    2601.23871717    2626.37145840    2651.50419963    2676.63694086    2701.76968209    2726.90242332    2752.03516454    2777.16790577    2802.30064700    2827.43338823    2852.56612946    2877.69887069    2902.83161192    2927.96435315    2953.09709437    2978.22983560    3003.36257683    3028.49531806    3053.62805929    3078.76080052    3103.89354175    3129.02628298    3154.15902420    3179.29176543    3204.42450666    3229.55724789    3254.68998912    3279.82273035    3304.95547158    3330.08821281    3355.22095403    3380.35369526    3405.48643649    3430.61917772    3455.75191895    3480.88466018    3506.01740141    3531.15014263    3556.28288386    3581.41562509    3606.54836632    3631.68110755    3656.81384878    3681.94659001    3707.07933124    3732.21207246    3757.34481369    3782.47755492    3807.61029615    3832.74303738    3857.87577861    3883.00851984    3908.14126107    3933.27400229    3958.40674352    3983.53948475    4008.67222598    4033.80496721    4058.93770844    4084.07044967    4109.20319090    4134.33593212    4159.46867335    4184.60141458    4209.73415581    4234.86689704    4259.99963827    4285.13237950    4310.26512073    4335.39786195    4360.53060318    4385.66334441    4410.79608564    4435.92882687    4461.06156810    4486.19430933    4511.32705055    4536.45979178    4561.59253301    4586.72527424    4611.85801547    4636.99075670    4662.12349793    4687.25623916    4712.38898038    4737.52172161    4762.65446284    4787.78720407    4812.91994530    4838.05268653    4863.18542776    4888.31816899    4913.45091021    4938.58365144    4963.71639267    4988.84913390    5013.98187513    5039.11461636    5064.24735759    5089.38009882    5114.51284004    5139.64558127    5164.77832250    5189.91106373    5215.04380496    5240.17654619    5265.30928742    5290.44202865    5315.57476987    5340.70751110    5365.84025233    5390.97299356    5416.10573479    5441.23847602    5466.37121725    5491.50395847    5516.63669970    5541.76944093    5566.90218216    5592.03492339    5617.16766462    5642.30040585    5667.43314708    5692.56588830    5717.69862953    5742.83137076    5767.96411199    5793.09685322    5818.22959445    5843.36233568    5868.49507691    5893.62781813    5918.76055936    5943.89330059    5969.02604182    5994.15878305    6019.29152428    6044.42426551    6069.55700674    6094.68974796    6119.82248919    6144.95523042    6170.08797165    6195.22071288    6220.35345411    6245.48619534    6270.61893657    6295.75167779    6320.88441902    6346.01716025    6371.14990148    6396.28264271    6421.41538394    6446.54812517    6471.68086639    6496.81360762    6521.94634885    6547.07909008    6572.21183131    6597.34457254    6622.47731377    6647.61005500    6672.74279622    6697.87553745    6723.00827868    6748.14101991    6773.27376114    6798.40650237    6823.53924360    6848.67198483    6873.80472605    6898.93746728    6924.07020851    6949.20294974    6974.33569097    6999.46843220    7024.60117343    7049.73391466    7074.86665588    7099.99939711    7125.13213834    7150.26487957    7175.39762080    7200.53036203    7225.66310326    7250.79584449    7275.92858571    7301.06132694    7326.19406817    7351.32680940    7376.45955063    7401.59229186    7426.72503309    7451.85777432    7476.99051554    7502.12325677    7527.25599800    7552.38873923    7577.52148046    7602.65422169    7627.78696292    7652.91970414    7678.05244537    7703.18518660    7728.31792783    7753.45066906    7778.58341029    7803.71615152    7828.84889275    7853.98163397    7879.11437520    7904.24711643    7929.37985766    7954.51259889    7979.64534012    8004.77808135    8029.91082258    8055.04356380    8080.17630503    8105.30904626    8130.44178749    8155.57452872    8180.70726995    8205.84001118    8230.97275241    8256.10549363    8281.23823486    8306.37097609    8331.50371732    8356.63645855    8381.76919978    8406.90194101    8432.03468224    8457.16742346    8482.30016469    8507.43290592    8532.56564715    8557.69838838    8582.83112961    8607.96387084    8633.09661206    8658.22935329    8683.36209452    8708.49483575    8733.62757698    8758.76031821    8783.89305944    8809.02580067    8834.15854189    8859.29128312    8884.42402435    8909.55676558    8934.68950681    8959.82224804    8984.95498927    9010.08773050    9035.22047172    9060.35321295    9085.48595418    9110.61869541    9135.75143664    9160.88417787    9186.01691910    9211.14966033    9236.28240155    9261.41514278    9286.54788401    9311.68062524    9336.81336647    9361.94610770    9387.07884893    9412.21159016    9437.34433138    9462.47707261    9487.60981384    9512.74255507    9537.87529630    9563.00803753    9588.14077876    9613.27351998    9638.40626121    9663.53900244    9688.67174367    9713.80448490    9738.93722613    9764.06996736    9789.20270859    9814.33544981    9839.46819104    9864.60093227    9889.73367350    9914.86641473    9939.99915596    9965.13189719    9990.26463842   10015.39737964   10040.53012087
    INTERNAL  FACTOR  1.0
          12.56637061      37.69911184      62.83185307      87.96459430     113.09733553     138.23007676     163.36281799     188.49555922     213.62830044     238.76104167     263.89378290     289.02652413     314.15926536     339.29200659     364.42474782     389.55748905     414.69023027     439.82297150     464.95571273     490.08845396     515.22119519     540.35393642     565.48667765     590.61941887     615.75216010     640.88490133     666.01764256     691.15038379     716.28312502     741.41586625     766.54860748     791.68134870     816.81408993     841.94683116     867.07957239     892.21231362     917.34505485     942.47779608     967.61053731     992.74327853    1017.87601976    1043.00876099    1068.14150222    1093.27424345    1118.40698468    1143.53972591    1168.67246714    1193.80520836    1218.93794959    1244.07069082    1269.20343205    1294.33617328    1319.46891451    1344.60165574    1369.73439697    1394.86713819    1419.99987942    1445.13262065    1470.26536188    1495.39810311    1520.53084434    1545.66358557    1570.79632679    1595.92906802    1621.06180925    1646.19455048    1671.32729171    1696.46003294    1721.59277417    1746.72551540    1771.85825662    1796.99099785    1822.12373908    1847.25648031    1872.38922154    1897.52196277    1922.65470400    1947.78744523    1972.92018645    1998.05292768    2023.18566891    2048.31841014    2073.45115137    2098.58389260    2123.71663383    2148.84937506    2173.98211628    2199.11485751    2224.24759874    2249.38033997    2274.51308120    2299.64582243    2324.77856366    2349.91130489    2375.04404611    2400.17678734    2425.30952857    2450.44226980    2475.57501103    2500.70775226    2525.84049349    2550.97323471    2576.10597594    2601.23871717    2626.37145840    2651.50419963    2676.63694086    2701.76968209    2726.90242332    2752.03516454    2777.16790577    2802.30064700    2827.43338823    2852.56612946    2877.69887069    2902.83161192    2927.96435315    2953.09709437    2978.22983560    3003.36257683    3028.49531806    3053.62805929    3078.76080052    3103.89354175    3129.02628298    3154.15902420    3179.29176543    3204.42450666    3229.55724789    3254.68998912    3279.82273035    3304.95547158    3330.08821281    3355.22095403    3380.35369526    3405.48643649    3430.61917772    3455.75191895    3480.88466018    3506.01740141    3531.15014263    3556.28288386    3581.41562509    3606.54836632    3631.68110755    3656.81384878    3681.94659001    3707.07933124    3732.21207246    3757.34481369    3782.47755492    3807.61029615    3832.74303738    3857.87577861    3883.00851984    3908.14126107    3933.27400229    3958.40674352    3983.53948475    4008.67222598    4033.80496721    4058.93770844    4084.07044967    4109.20319090    4134.33593212    4159.46867335    4184.60141458    4209.73415581    4234.86689704    4259.99963827    4285.13237950    4310.26512073    4335.39786195    4360.53060318    4385.66334441    4410.79608564    4435.92882687    4461.06156810    4486.19430933    4511.32705055    4536.45979178    4561.59253301    4586.72527424    4611.85801547    4636.99075670    4662.12349793    4687.25623916    4712.38898038    4737.52172161    4762.65446284    4787.78720407    4812.91994530    4838.05268653    4863.18542776    4888.31816899    4913.45091021    4938.58365144    4963.71639267    4988.84913390    5013.98187513    5039.11461636    5064.24735759    5089.38009882    5114.51284004    5139.64558127    5164.77832250    5189.91106373    5215.04380496    5240.17654619    5265.30928742    5290.44202865    5315.57476987    5340.70751110    5365.84025233    5390.97299356    5416.10573479    5441.23847602    5466.37121725    5491.50395847    5516.63669970    5541.76944093    5566.90218216    5592.03492339    5617.16766462    5642.30040585    5667.43314708    5692.56588830    5717.69862953    5742.83137076    5767.96411199    5793.09685322    5818.22959445    5843.36233568    5868.49507691    5893.62781813    5918.76055936    5943.89330059    5969.02604182    5994.15878305    6019.29152428    6044.42426551    6069.55700674    6094.68974796    6119.82248919    6144.95523042    6170.08797165    6195.22071288    6220.35345411    6245.48619534    6270.61893657    6295.75167779    6320.88441902    6346.01716025    6371.14990148    6396.28264271    6421.41538394    6446.54812517    6471.68086639    6496.81360762    6521.94634885    6547.07909008    6572.21183131    6597.34457254    6622.47731377    6647.61005500    6672.74279622    6697.87553745    6723.00827868    6748.14101991    6773.27376114    6798.40650237    6823.53924360    6848.67198483    6873.80472605    6898.93746728    6924.07020851    6949.20294974    6974.33569097    6999.46843220    7024.60117343    7049.73391466    7074.86665588    7099.99939711    7125.13213834    7150.26487957    7175.39762080    7200.53036203    7225.66310326    7250.79584449    7275.92858571    7301.06132694    7326.19406817    7351.32680940    7376.45955063    7401.59229186    7426.72503309    7451.85777432    7476.99051554    7502.12325677    7527.25599800    7552.38873923    7577.52148046    7602.65422169    7627.78696292    7652.91970414    7678.05244537    7703.18518660    7728.31792783    7753.45066906    7778.58341029    7803.71615152    7828.84889275    7853.98163397    7879.11437520    7904.24711643    7929.37985766    7954.51259889    7979.64534012    8004.77808135    8029.91082258    8055.04356380    8080.17630503    8105.30904626    8130.44178749    8155.57452872    8180.70726995    8205.84001118    8230.97275241    8256.10549363    8281.23823486    8306.37097609    8331.50371732    8356.63645855    8381.76919978    8406.90194101    8432.03468224    8457.16742346    8482.30016469    8507.43290592    8532.56564715    8557.69838838    8582.83112961    8607.96387084    8633.09661206    8658.22935329    8683.36209452    8708.49483575    8733.62757698    8758.76031821    8783.89305944    8809.02580067    8834.15854189    8859.29128312    8884.42402435    8909.55676558    8934.68950681    8959.82224804    8984.95498927    9010.08773050    9035.22047172    9060.35321295    9085.48595418    9110.61869541    9135.75143664    9160.88417787    9186.01691910    9211.14966033    9236.28240155    9261.41514278    9286.54788401    9311.68062524    9336.81336647    9361.94610770    9387.07884893    9412.21159016    9437.34433138    9462.47707261    9487.60981384    9512.74255507    9537.87529630    9563.00803753    9588.14077876    9613.27351998    9638.40626121    9663.53900244    9688.67174367    9713.80448490    9738.93722613    9764.06996736    9789.20270859    9814.33544981    9839.46819104    9864.60093227    9889.73367350    9914.86641473    9939.99915596    9965.13189719    9990.26463842   10015.39737964   10040.53012087
    INTERNAL  FACTOR  1.0
          12.56637061      37.69911184      62.83185307      87.96459430     113.09733553     138.23007676     163.36281799     188.49555922     213.62830044     238.76104167     263.89378290     289.02652413     314.15926536     339.29200659     364.42474782     389.55748905     414.69023027     439.82297150     464.95571273     490.08845396     515.22119519     540.35393642     565.48667765     590.61941887     615.75216010     640.88490133     666.01764256     691.15038379     716.28312502     741.41586625     766.54860748     791.68134870     816.81408993     841.94683116     867.07957239     892.21231362     917.34505485     942.47779608     967.61053731     992.74327853    1017.87601976    1043.00876099    1068.14150222    1093.27424345    1118.40698468    1143.53972591    1168.67246714    1193.80520836    1218.93794959    1244.07069082    1269.20343205    1294.33617328    1319.46891451    1344.60165574    1369.73439697    1394.86713819    1419.99987942    1445.13262065    1470.26536188    1495.39810311    1520.53084434    1545.66358557    1570.79632679    1595.92906802    1621.06180925    1646.19455048    1671.32729171    1696.46003294    1721.59277417    1746.72551540    1771.85825662    1796.99099785    1822.12373908    1847.25648031    1872.38922154    1897.52196277    1922.65470400    1947.78744523    1972.92018645    1998.05292768    2023.18566891    2048.31841014    2073.45115137    2098.58389260    2123.71663383    2148.84937506    2173.98211628    2199.11485751    2224.24759874    2249.38033997    2274.51308120    2299.64582243    2324.77856366    2349.91130489    2375.04404611    2400.17678734    2425.30952857    2450.44226980    2475.57501103    2500.70775226    2525.84049349    2550.97323471    2576.10597594    2601.23871717    2626.37145840    2651.50419963    2676.63694086    2701.76968209    2726.90242332    2752.03516454    2777.16790577    2802.30064700    2827.43338823    2852.56612946    2877.69887069    2902.83161192    2927.96435315    2953.09709437    2978.22983560    3003.36257683    3028.49531806    3053.62805929    3078.76080052    3103.89354175    3129.02628298    3154.15902420    3179.29176543    3204.42450666    3229.55724789    3254.68998912    3279.82273035    3304.95547158    3330.08821281    3355.22095403    3380.35369526    3405.48643649    3430.61917772    3455.75191895    3480.88466018    3506.01740141    3531.15014263    3556.28288386    3581.41562509    3606.54836632    3631.68110755    3656.81384878    3681.94659001    3707.07933124    3732.21207246    3757.34481369    3782.47755492    3807.61029615    3832.74303738    3857.87577861    3883.00851984    3908.14126107    3933.27400229    3958.40674352    3983.53948475    4008.67222598    4033.80496721    4058.93770844    4084.07044967    4109.20319090    4134.33593212    4159.46867335    4184.60141458    4209.73415581    4234.86689704    4259.99963827    4285.13237950    4310.26512073    4335.39786195    4360.53060318    4385.66334441    4410.79608564    4435.92882687    4461.06156810    4486.19430933    4511.32705055    4536.45979178    4561.59253301    4586.72527424    4611.85801547    4636.99075670    4662.12349793    4687.25623916    4712.38898038    4737.52172161    4762.65446284    4787.78720407    4812.91994530    4838.05268653    4863.18542776    4888.31816899    4913.45091021    4938.58365144    4963.71639267    4988.84913390    5013.98187513    5039.11461636    5064.24735759    5089.38009882    5114.51284004    5139.64558127    5164.77832250    5189.91106373    5215.04380496    5240.17654619    5265.30928742    5290.44202865    5315.57476987    5340.70751110    5365.84025233    5390.97299356    5416.10573479    5441.23847602    5466.37121725    5491.50395847    5516.63669970    5541.76944093    5566.90218216    5592.03492339    5617.16766462    5642.30040585    5667.43314708    5692.56588830    5717.69862953    5742.83137076    5767.96411199    5793.09685322    5818.22959445    5843.36233568    5868.49507691    5893.62781813    5918.76055936    5943.89330059    5969.02604182    5994.15878305    6019.29152428    6044.42426551    6069.55700674    6094.68974796    6119.82248919    6144.95523042    6170.08797165    6195.22071288    6220.35345411    6245.48619534    6270.61893657    6295.75167779    6320.88441902    6346.01716025    6371.14990148    6396.28264271    6421.41538394    6446.54812517    6471.68086639    6496.81360762    6521.94634885    6547.07909008    6572.21183131    6597.34457254    6622.47731377    6647.61005500    6672.74279622    6697.87553745    6723.00827868    6748.14101991    6773.27376114    6798.40650237    6823.53924360    6848.67198483    6873.80472605    6898.93746728    6924.07020851    6949.20294974    6974.33569097    6999.46843220    7024.60117343    7049.73391466    7074.86665588    7099.99939711    7125.13213834    7150.26487957    7175.39762080    7200.53036203    7225.66310326    7250.79584449    7275.92858571    7301.06132694    7326.19406817    7351.32680940    7376.45955063    7401.59229186    7426.72503309    7451.85777432    7476.99051554    7502.12325677    7527.25599800    7552.38873923    7577.52148046    7602.65422169    7627.78696292    7652.91970414    7678.05244537    7703.18518660    7728.31792783    7753.45066906    7778.58341029    7803.71615152    7828.84889275    7853.98163397    7879.11437520    7904.24711643    7929.37985766    7954.51259889    7979.64534012    8004.77808135    8029.91082258    8055.04356380    8080.17630503    8105.30904626    8130.44178749    8155.57452872    8180.70726995    8205.84001118    8230.97275241    8256.10549363    8281.23823486    8306.37097609    8331.50371732    8356.63645855    8381.76919978    8406.90194101    8432.03468224    8457.16742346    8482.30016469    8507.43290592    8532.56564715    8557.69838838    8582.83112961    8607.96387084    8633.09661206    8658.22935329    8683.36209452    8708.49483575    8733.62757698    8758.76031821    8783.89305944    8809.02580067    8834.15854189    8859.29128312    8884.42402435    8909.55676558    8934.68950681    8959.82224804    8984.95498927    9010.08773050    9035.22047172    9060.35321295    9085.48595418    9110.61869541    9135.75143664    9160.88417787    9186.01691910    9211.14966033    9236.28240155    9261.41514278    9286.54788401    9311.68062524    9336.81336647    9361.94610770    9387.07884893    9412.21159016    9437.34433138    9462.47707261    9487.60981384    9512.74255507    9537.87529630    9563.00803753    9588.14077876    9613.27351998    9638.40626121    9663.53900244    9688.67174367    9713.80448490    9738.93722613    9764.06996736    9789.20270859    9814.33544981    9839.46819104    9864.60093227    9889.73367350    9914.86641473    9939.99915596    9965.13189719    9990.26463842   10015.39737964   10040.53012087
    INTERNAL  FACTOR  1.0
          12.56637061      37.69911184      62.83185307      87.96459430     113.09733553     138.23007676     163.36281799     188.49555922     213.62830044     238.76104167     263.89378290     289.02652413     314.15926536     339.29200659     364.42474782     389.55748905     414.69023027     439.82297150     464.95571273     490.08845396     515.22119519     540.35393642     565.48667765     590.61941887     615.75216010     640.88490133     666.01764256     691.15038379     716.28312502     741.41586625     766.54860748     791.68134870     816.81408993     841.94683116     867.07957239     892.21231362     917.34505485     942.47779608     967.61053731     992.74327853    1017.87601976    1043.00876099    1068.14150222    1093.27424345    1118.40698468    1143.53972591    1168.67246714    1193.80520836    1218.93794959    1244.07069082    1269.20343205    1294.33617328    1319.46891451    1344.60165574    1369.73439697    1394.86713819    1419.99987942    1445.13262065    1470.26536188    1495.39810311    1520.53084434    1545.66358557    1570.79632679    1595.92906802    1621.06180925    1646.19455048    1671.32729171    1696.46003294    1721.59277417    1746.72551540    1771.85825662    1796.99099785    1822.12373908    1847.25648031    1872.38922154    1897.52196277    1922.65470400    1947.78744523    1972.92018645    1998.05292768    2023.18566891    2048.31841014    2073.45115137    2098.58389260    2123.71663383    2148.84937506    2173.98211628    2199.11485751    2224.24759874    2249.38033997    2274.51308120    2299.64582243    2324.77856366    2349.91130489    2375.04404611    2400.17678734    2425.30952857    2450.44226980    2475.57501103    2500.70775226    2525.84049349    2550.97323471    2576.10597594    2601.23871717    2626.37145840    2651.50419963    2676.63694086    2701.76968209    2726.90242332    2752.03516454    2777.16790577    2802.30064700    2827.43338823    2852.56612946    2877.69887069    2902.83161192    2927.96435315    2953.09709437    2978.22983560    3003.36257683    3028.49531806    3053.62805929    3078.76080052    3103.89354175    3129.02628298    3154.15902420    3179.29176543    3204.42450666    3229.55724789    3254.68998912    3279.82273035    3304.95547158    3330.08821281    3355.22095403    3380.35369526    3405.48643649    3430.61917772    3455.75191895    3480.88466018    3506.01740141    3531.15014263    3556.28288386    3581.41562509    3606.54836632    3631.68110755    3656.81384878    3681.94659001    3707.07933124    3732.21207246    3757.34481369    3782.47755492    3807.61029615    3832.74303738    3857.87577861    3883.00851984    3908.14126107    3933.27400229    3958.40674352    3983.53948475    4008.67222598    4033.80496721    4058.93770844    4084.07044967    4109.20319090    4134.33593212    4159.46867335    4184.60141458    4209.73415581    4234.86689704    4259.99963827    4285.13237950    4310.26512073    4335.39786195    4360.53060318    4385.66334441    4410.79608564    4435.92882687    4461.06156810    4486.19430933    4511.32705055    4536.45979178    4561.59253301    4586.72527424    4611.85801547    4636.99075670    4662.12349793    4687.25623916    4712.38898038    4737.52172161    4762.65446284    4787.78720407    4812.91994530    4838.05268653    4863.18542776    4888.31816899    4913.45091021    4938.58365144    4963.71639267    4988.84913390    5013.98187513    5039.11461636    5064.24735759    5089.38009882    5114.51284004    5139.64558127    5164.77832250    5189.91106373    5215.04380496    5240.17654619    5265.30928742    5290.44202865    5315.57476987    5340.70751110    5365.84025233    5390.97299356    5416.10573479    5441.23847602    5466.37121725    5491.50395847    5516.63669970    5541.76944093    5566.90218216    5592.03492339    5617.16766462    5642.30040585    5667.43314708    5692.56588830    5717.69862953    5742.83137076    5767.96411199    5793.09685322    5818.22959445    5843.36233568    5868.49507691    5893.62781813    5918.76055936    5943.89330059    5969.02604182    5994.15878305    6019.29152428    6044.42426551    6069.55700674    6094.68974796    6119.82248919    6144.95523042    6170.08797165    6195.22071288    6220.35345411    6245.48619534    6270.61893657    6295.75167779    6320.88441902    6346.01716025    6371.14990148    6396.28264271    6421.41538394    6446.54812517    6471.68086639    6496.81360762    6521.94634885    6547.07909008    6572.21183131    6597.34457254    6622.47731377    6647.61005500    6672.74279622    6697.87553745    6723.00827868    6748.14101991    6773.27376114    6798.40650237    6823.53924360    6848.67198483    6873.80472605    6898.93746728    6924.07020851    6949.20294974    6974.33569097    6999.46843220    7024.60117343    7049.73391466    7074.86665588    7099.99939711    7125.13213834    7150.26487957    7175.39762080    7200.53036203    7225.66310326    7250.79584449    7275.92858571    7301.06132694    7326.19406817    7351.32680940    7376.45955063    7401.59229186    7426.72503309    7451.85777432    7476.99051554    7502.12325677    7527.25599800    7552.38873923    7577.52148046    7602.65422169    7627.78696292    7652.91970414    7678.05244537    7703.18518660    7728.31792783    7753.45066906    7778.58341029    7803.71615152    7828.84889275    7853.98163397    7879.11437520    7904.24711643    7929.37985766    7954.51259889    7979.64534012    8004.77808135    8029.91082258    8055.04356380    8080.17630503    8105.30904626    8130.44178749    8155.57452872    8180.70726995    8205.84001118    8230.97275241    8256.10549363    8281.23823486    8306.37097609    8331.50371732    8356.63645855    8381.76919978    8406.90194101    8432.03468224    8457.16742346    8482.30016469    8507.43290592    8532.56564715    8557.69838838    8582.83112961    8607.96387084    8633.09661206    8658.22935329    8683.36209452    8708.49483575    8733.62757698    8758.76031821    8783.89305944    8809.02580067    8834.15854189    8859.29128312    8884.42402435    8909.55676558    8934.68950681    8959.82224804    8984.95498927    9010.08773050    9035.22047172    9060.35321295    9085.48595418    9110.61869541    9135.75143664    9160.88417787    9186.01691910    9211.14966033    9236.28240155    9261.41514278    9286.54788401    9311.68062524    9336.81336647    9361.94610770    9387.07884893    9412.21159016    9437.34433138    9462.47707261    9487.60981384    9512.74255507    9537.87529630    9563.00803753    9588.14077876    9613.27351998    9638.40626121    9663.53900244    9688.67174367    9713.80448490    9738.93722613    9764.06996736    9789.20270859    9814.33544981    9839.46819104    9864.60093227    9889.73367350    9914.86641473    9939.99915596    9965.13189719    9990.26463842   10015.39737964   10040.53012087
    INTERNAL  FACTOR  1.0