# File generated by Flopy version 3.4.3 on 11/20/2023 at 09:02:18.
BEGIN options
END options

BEGIN timing
  TDIS6  model1d.tdis
END timing

BEGIN models
  gwf6  model1df.nam  model1df
  gwt6  model1dt.nam  model1dt
END models

BEGIN exchanges
  GWF6-GWT6  model1d.gwfgwt  model1df  model1dt
END exchanges

BEGIN solutiongroup  1
  ims6  model1df.ims  model1df
  ims6  model1dt.ims  model1dt
END solutiongroup  1

