# File generated by Flopy version 3.4.3 on 11/20/2023 at 09:02:18.
BEGIN options
END options

BEGIN griddata
  diffc
    CONSTANT       0.00000000
  alh
    CONSTANT       0.10000000
  ath1
    CONSTANT       0.01000000
END griddata

