# File generated by Flopy version 3.4.3 on 11/20/2023 at 09:02:18.
BEGIN griddata
  strt
    CONSTANT      35.00000000
END griddata

