# File generated by Flopy version 3.4.3 on 11/20/2023 at 09:02:18.
BEGIN options
END options

BEGIN dimensions
  NLAY  1
  NROW  1
  NCOL  400
END dimensions

BEGIN griddata
  delr
    CONSTANT       0.20000000
  delc
    CONSTANT       1.00000000
  top
    CONSTANT       0.00000000
  botm
    CONSTANT     -20.00000000
END griddata

