# File generated by Flopy version 3.4.3 on 11/21/2023 at 15:17:46.
BEGIN options
END options

BEGIN timing
  TDIS6  model1d_cycle.tdis
END timing

BEGIN models
  gwf6  model1d_cyclef.nam  model1d_cyclef
  gwt6  model1d_cyclet.nam  model1d_cyclet
END models

BEGIN exchanges
  GWF6-GWT6  model1d_cycle.gwfgwt  model1d_cyclef  model1d_cyclet
END exchanges

BEGIN solutiongroup  1
  ims6  model1d_cyclef.ims  model1d_cyclef
  ims6  model1d_cyclet.ims  model1d_cyclet
END solutiongroup  1

