# File generated by Flopy version 3.4.3 on 11/21/2023 at 15:17:46.
BEGIN options
END options

BEGIN packages
  OC6  model1d_cyclet.oc  oc
  ADV6  model1d_cyclet.adv  adv1
  SSM6  model1d_cyclet.ssm  ssm1
  IC6  model1d_cyclet.ic  ic
  MST6  model1d_cyclet.mst  mst
  DIS6  model1d_cyclet.dis  dis
  DSP6  model1d_cyclet.dsp  dsp1
END packages

