# File generated by Flopy version 3.4.3 on 11/21/2023 at 15:17:46.
BEGIN options
END options

BEGIN griddata
  diffc
    CONSTANT       0.00000000
  alh
    CONSTANT       1.90000000
  ath1
    CONSTANT       0.01000000
END griddata

