# File generated by Flopy version 3.4.3 on 11/21/2023 at 15:17:46.
BEGIN options
  TIME_UNITS  days
END options

BEGIN dimensions
  NPER  2
END dimensions

BEGIN perioddata
     100.00000000  1000       1.00000000
     100.00000000  1000       1.00000000
END perioddata

