# File generated by Flopy version 3.4.3 on 11/21/2023 at 15:17:46.
BEGIN options
  auxiliary  CONCENTRATION
END options

BEGIN dimensions
  MAXBOUND  1
END dimensions

BEGIN period  1
  1 1 1       5.00000000       0.00000000
END period  1

BEGIN period  2
  1 1 1      -5.00000000       0.00000000
END period  2

