# File generated by Flopy version 3.4.3 on 11/21/2023 at 15:17:46.
BEGIN options
  SAVE_FLOWS
END options

BEGIN packages
  OC6  model1d_cyclef.oc  oc
  CHD6  model1d_cyclef.chd  chd1
  IC6  model1d_cyclef.ic  ic
  NPF6  model1d_cyclef.npf  npf
  DIS6  model1d_cyclef.dis  dis
  WEL6  model1d_cyclef.wel  wel1
END packages

