# File generated by Flopy version 3.4.3 on 11/21/2023 at 15:17:46.
BEGIN griddata
  strt
    CONSTANT       0.00000000
END griddata

