# File generated by Flopy version 3.4.3 on 11/21/2023 at 15:17:46.
BEGIN options
  BUDGET  FILEOUT  model1d_cyclef.cbc
  HEAD  FILEOUT  model1d_cyclef.hds
END options

BEGIN period  1
  SAVE  HEAD  ALL
  SAVE  BUDGET  ALL
END period  1

