# File generated by Flopy version 3.4.3 on 11/21/2023 at 15:17:46.
BEGIN options
  SAVE_FLOWS
END options

BEGIN griddata
  porosity
    CONSTANT       0.25000000
END griddata

