# WEL package for SEAWAT generated by Flopy 3.4.3
        10         0 
        10         0 # stress period 1
        10         1         1          -170.2
        11         1         1          -170.2
        12         1         1          -170.2
        13         1         1          -170.2
        14         1         1          -170.2
        10         3         1           170.2
        11         3         1           170.2
        12         3         1           170.2
        13         3         1           170.2
        14         3         1           170.2
