# BAS6 package for SEAWAT generated by Flopy 3.4.3
FREE
        13         1            (35I10)        -1 #ibound layer 1
        -1        -1        -1        -1        -1        -1        -1        -1        -1        -1        -1        -1        -1        -1        -1        -1        -1        -1        -1        -1        -1        -1        -1        -1        -1        -1        -1        -1        -1        -1        -1        -1        -1        -1        -1
        -1        -1        -1        -1        -1        -1        -1        -1        -1        -1        -1        -1        -1        -1        -1        -1        -1        -1        -1        -1        -1        -1        -1        -1        -1        -1        -1        -1        -1        -1        -1        -1        -1        -1        -1
        -1        -1        -1        -1        -1        -1        -1        -1        -1        -1        -1        -1        -1        -1        -1        -1        -1        -1        -1        -1        -1        -1        -1        -1        -1        -1        -1        -1        -1        -1        -1        -1        -1        -1        -1
        13         1            (35I10)        -1 #ibound layer 2
         1         1         1         1         1         1         1         1         1         1         1         1         1         1         1         1         1         1         1         1         1         1         1         1         1         1         1         1         1         1         1         1         1         1        -1
         0         0         0         0         0         0         0         0         0         0         0         0         0         0         0         0         0         0         0         0         0         0         0         0         0         0         0         0         0         0         0         0         0         0         0
         1         1         1         1         1         1         1         1         1         1         1         1         1         1         1         1         1         1         1         1         1         1         1         1         1         1         1         1         1         1         1         1         1         1        -1
        13         1            (35I10)        -1 #ibound layer 3
         1         1         1         1         1         1         1         1         1         1         1         1         1         1         1         1         1         1         1         1         1         1         1         1         1         1         1         1         1         1         1         1         1         1        -1
         0         0         0         0         0         0         0         0         0         0         0         0         0         0         0         0         0         0         0         0         0         0         0         0         0         0         0         0         0         0         0         0         0         0         0
         1         1         1         1         1         1         1         1         1         1         1         1         1         1         1         1         1         1         1         1         1         1         1         1         1         1         1         1         1         1         1         1         1         1        -1
        13         1            (35I10)        -1 #ibound layer 4
         1         1         1         1         1         1         1         1         1         1         1         1         1         1         1         1         1         1         1         1         1         1         1         1         1         1         1         1         1         1         1         1         1         1        -1
         0         0         0         0         0         0         0         0         0         0         0         0         0         0         0         0         0         0         0         0         0         0         0         0         0         0         0         0         0         0         0         0         0         0         0
         1         1         1         1         1         1         1         1         1         1         1         1         1         1         1         1         1         1         1         1         1         1         1         1         1         1         1         1         1         1         1         1         1         1        -1
        13         1            (35I10)        -1 #ibound layer 5
         1         1         1         1         1         1         1         1         1         1         1         1         1         1         1         1         1         1         1         1         1         1         1         1         1         1         1         1         1         1         1         1         1         1        -1
         0         0         0         0         0         0         0         0         0         0         0         0         0         0         0         0         0         0         0         0         0         0         0         0         0         0         0         0         0         0         0         0         0         0         0
         1         1         1         1         1         1         1         1         1         1         1         1         1         1         1         1         1         1         1         1         1         1         1         1         1         1         1         1         1         1         1         1         1         1        -1
        13         1            (35I10)        -1 #ibound layer 6
         1         1         1         1         1         1         1         1         1         1         1         1         1         1         1         1         1         1         1         1         1         1         1         1         1         1         1         1         1         1         1         1         1         1        -1
         0         0         0         0         0         0         0         0         0         0         0         0         0         0         0         0         0         0         0         0         0         0         0         0         0         0         0         0         0         0         0         0         0         0         0
         1         1         1         1         1         1         1         1         1         1         1         1         1         1         1         1         1         1         1         1         1         1         1         1         1         1         1         1         1         1         1         1         1         1        -1
        13         1            (35I10)        -1 #ibound layer 7
         1         1         1         1         1         1         1         1         1         1         1         1         1         1         1         1         1         1         1         1         1         1         1         1         1         1         1         1         1         1         1         1         1         1        -1
         0         0         0         0         0         0         0         0         0         0         0         0         0         0         0         0         0         0         0         0         0         0         0         0         0         0         0         0         0         0         0         0         0         0         0
         1         1         1         1         1         1         1         1         1         1         1         1         1         1         1         1         1         1         1         1         1         1         1         1         1         1         1         1         1         1         1         1         1         1        -1
        13         1            (35I10)        -1 #ibound layer 8
         1         1         1         1         1         1         1         1         1         1         1         1         1         1         1         1         1         1         1         1         1         1         1         1         1         1         1         1         1         1         1         1         1         1        -1
         0         0         0         0         0         0         0         0         0         0         0         0         0         0         0         0         0         0         0         0         0         0         0         0         0         0         0         0         0         0         0         0         0         0         0
         1         1         1         1         1         1         1         1         1         1         1         1         1         1         1         1         1         1         1         1         1         1         1         1         1         1         1         1         1         1         1         1         1         1        -1
        13         1            (35I10)        -1 #ibound layer 9
         1         1         1         1         1         1         1         1         1         1         1         1         1         1         1         1         1         1         1         1         1         1         1         1         1         1         1         1         1         1         1         1         1         1        -1
         0         0         0         0         0         0         0         0         0         0         0         0         0         0         0         0         0         0         0         0         0         0         0         0         0         0         0         0         0         0         0         0         0         0         0
         1         1         1         1         1         1         1         1         1         1         1         1         1         1         1         1         1         1         1         1         1         1         1         1         1         1         1         1         1         1         1         1         1         1        -1
        13         1            (35I10)        -1 #ibound layer 10
         1         1         1         1         1         1         1         1         1         1         1         1         1         1         1         1         1         1         1         1         1         1         1         1         1         1         1         1         1         1         1         1         1         1        -1
         0         0         0         0         0         0         0         0         0         0         0         0         0         0         0         0         0         0         0         0         0         0         0         0         0         0         0         0         0         0         0         0         0         0         0
         1         1         1         1         1         1         1         1         1         1         1         1         1         1         1         1         1         1         1         1         1         1         1         1         1         1         1         1         1         1         1         1         1         1        -1
        13         1            (35I10)        -1 #ibound layer 11
         1         1         1         1         1         1         1         1         1         1         1         1         1         1         1         1         1         1         1         1         1         1         1         1         1         1         1         1         1         1         1         1         1         1        -1
         0         0         0         0         0         0         0         0         0         0         0         0         0         0         0         0         0         0         0         0         0         0         0         0         0         0         0         0         0         0         0         0         0         0         0
         1         1         1         1         1         1         1         1         1         1         1         1         1         1         1         1         1         1         1         1         1         1         1         1         1         1         1         1         1         1         1         1         1         1        -1
        13         1            (35I10)        -1 #ibound layer 12
         1         1         1         1         1         1         1         1         1         1         1         1         1         1         1         1         1         1         1         1         1         1         1         1         1         1         1         1         1         1         1         1         1         1        -1
         0         0         0         0         0         0         0         0         0         0         0         0         0         0         0         0         0         0         0         0         0         0         0         0         0         0         0         0         0         0         0         0         0         0         0
         1         1         1         1         1         1         1         1         1         1         1         1         1         1         1         1         1         1         1         1         1         1         1         1         1         1         1         1         1         1         1         1         1         1        -1
        13         1            (35I10)        -1 #ibound layer 13
         1         1         1         1         1         1         1         1         1         1         1         1         1         1         1         1         1         1         1         1         1         1         1         1         1         1         1         1         1         1         1         1         1         1        -1
         0         0         0         0         0         0         0         0         0         0         0         0         0         0         0         0         0         0         0         0         0         0         0         0         0         0         0         0         0         0         0         0         0         0         0
         1         1         1         1         1         1         1         1         1         1         1         1         1         1         1         1         1         1         1         1         1         1         1         1         1         1         1         1         1         1         1         1         1         1        -1
        13         1            (35I10)        -1 #ibound layer 14
         1         1         1         1         1         1         1         1         1         1         1         1         1         1         1         1         1         1         1         1         1         1         1         1         1         1         1         1         1         1         1         1         1         1        -1
         0         0         0         0         0         0         0         0         0         0         0         0         0         0         0         0         0         0         0         0         0         0         0         0         0         0         0         0         0         0         0         0         0         0         0
         1         1         1         1         1         1         1         1         1         1         1         1         1         1         1         1         1         1         1         1         1         1         1         1         1         1         1         1         1         1         1         1         1         1        -1
        13         1            (35I10)        -1 #ibound layer 15
         1         1         1         1         1         1         1         1         1         1         1         1         1         1         1         1         1         1         1         1         1         1         1         1         1         1         1         1         1         1         1         1         1         1        -1
         0         0         0         0         0         0         0         0         0         0         0         0         0         0         0         0         0         0         0         0         0         0         0         0         0         0         0         0         0         0         0         0         0         0         0
         1         1         1         1         1         1         1         1         1         1         1         1         1         1         1         1         1         1         1         1         1         1         1         1         1         1         1         1         1         1         1         1         1         1        -1
        13         1            (35I10)        -1 #ibound layer 16
        -1        -1        -1        -1        -1        -1        -1        -1        -1        -1        -1        -1        -1        -1        -1        -1        -1        -1        -1        -1        -1        -1        -1        -1        -1        -1        -1        -1        -1        -1        -1        -1        -1        -1        -1
        -1        -1        -1        -1        -1        -1        -1        -1        -1        -1        -1        -1        -1        -1        -1        -1        -1        -1        -1        -1        -1        -1        -1        -1        -1        -1        -1        -1        -1        -1        -1        -1        -1        -1        -1
        -1        -1        -1        -1        -1        -1        -1        -1        -1        -1        -1        -1        -1        -1        -1        -1        -1        -1        -1        -1        -1        -1        -1        -1        -1        -1        -1        -1        -1        -1        -1        -1        -1        -1        -1
   -999.99
        13         1          (35E15.6)        -1 #strt layer 1
  -1.898447E-08  -1.898447E-08  -1.898447E-08  -1.898447E-08  -1.898447E-08  -1.898447E-08  -1.898447E-08  -1.898447E-08  -1.898447E-08  -1.898447E-08  -1.898447E-08  -1.898447E-08  -1.898447E-08  -1.898447E-08  -1.898447E-08  -1.898447E-08  -1.898447E-08  -1.898447E-08  -1.898447E-08  -1.898447E-08  -1.898447E-08  -1.898447E-08  -1.898447E-08  -1.898447E-08  -1.898447E-08  -1.898447E-08  -1.898447E-08  -1.898447E-08  -1.898447E-08  -1.898447E-08  -1.898447E-08  -1.898447E-08  -1.898447E-08  -1.898447E-08  -1.898447E-08
  -1.898447E-08  -1.898447E-08  -1.898447E-08  -1.898447E-08  -1.898447E-08  -1.898447E-08  -1.898447E-08  -1.898447E-08  -1.898447E-08  -1.898447E-08  -1.898447E-08  -1.898447E-08  -1.898447E-08  -1.898447E-08  -1.898447E-08  -1.898447E-08  -1.898447E-08  -1.898447E-08  -1.898447E-08  -1.898447E-08  -1.898447E-08  -1.898447E-08  -1.898447E-08  -1.898447E-08  -1.898447E-08  -1.898447E-08  -1.898447E-08  -1.898447E-08  -1.898447E-08  -1.898447E-08  -1.898447E-08  -1.898447E-08  -1.898447E-08  -1.898447E-08  -1.898447E-08
  -1.898447E-08  -1.898447E-08  -1.898447E-08  -1.898447E-08  -1.898447E-08  -1.898447E-08  -1.898447E-08  -1.898447E-08  -1.898447E-08  -1.898447E-08  -1.898447E-08  -1.898447E-08  -1.898447E-08  -1.898447E-08  -1.898447E-08  -1.898447E-08  -1.898447E-08  -1.898447E-08  -1.898447E-08  -1.898447E-08  -1.898447E-08  -1.898447E-08  -1.898447E-08  -1.898447E-08  -1.898447E-08  -1.898447E-08  -1.898447E-08  -1.898447E-08  -1.898447E-08  -1.898447E-08  -1.898447E-08  -1.898447E-08  -1.898447E-08  -1.898447E-08  -1.898447E-08
        13         1          (35E15.6)        -1 #strt layer 2
  -3.890973E-02  -3.874131E-02  -3.847688E-02  -3.810386E-02  -3.762836E-02  -3.706037E-02  -3.641164E-02  -3.569466E-02  -3.492191E-02  -3.410545E-02  -3.325644E-02  -3.238507E-02  -3.150028E-02  -3.060988E-02  -2.972046E-02  -2.883751E-02  -2.796553E-02  -2.710810E-02  -2.626803E-02  -2.544746E-02  -2.464794E-02  -2.375958E-02  -2.264903E-02  -2.128158E-02  -1.963151E-02  -1.769167E-02  -1.548359E-02  -1.306410E-02  -1.052470E-02  -7.983292E-03  -5.571493E-03  -3.419028E-03  -1.633538E-03  -2.959760E-04  -5.125671E-07
  -9.999900E+02  -9.999900E+02  -9.999900E+02  -9.999900E+02  -9.999900E+02  -9.999900E+02  -9.999900E+02  -9.999900E+02  -9.999900E+02  -9.999900E+02  -9.999900E+02  -9.999900E+02  -9.999900E+02  -9.999900E+02  -9.999900E+02  -9.999900E+02  -9.999900E+02  -9.999900E+02  -9.999900E+02  -9.999900E+02  -9.999900E+02  -9.999900E+02  -9.999900E+02  -9.999900E+02  -9.999900E+02  -9.999900E+02  -9.999900E+02  -9.999900E+02  -9.999900E+02  -9.999900E+02  -9.999900E+02  -9.999900E+02  -9.999900E+02  -9.999900E+02  -9.999900E+02
   4.115095E-02   4.098215E-02   4.071721E-02   4.034343E-02   3.986688E-02   3.929751E-02   3.864707E-02   3.792801E-02   3.715283E-02   3.633352E-02   3.548129E-02   3.460634E-02   3.371772E-02   3.282329E-02   3.192972E-02   3.104261E-02   3.016651E-02   2.930506E-02   2.846112E-02   2.763684E-02   2.683379E-02   2.594163E-02   2.482648E-02   2.345363E-02   2.179737E-02   1.985051E-02   1.763431E-02   1.520488E-02   1.265224E-02   1.009173E-02   7.650494E-03   5.449590E-03   3.576014E-03   2.015002E-03  -5.125671E-07
        13         1          (35E15.6)        -1 #strt layer 3
  -7.916971E-02  -7.880253E-02  -7.822781E-02  -7.741992E-02  -7.639442E-02  -7.517529E-02  -7.379001E-02  -7.226703E-02  -7.063421E-02  -6.891781E-02  -6.714173E-02  -6.532724E-02  -6.349278E-02  -6.165401E-02  -5.982397E-02  -5.801329E-02  -5.623046E-02  -5.448214E-02  -5.277335E-02  -5.110778E-02  -4.948803E-02  -4.769135E-02  -4.544953E-02  -4.269478E-02  -3.937759E-02  -3.548540E-02  -3.106217E-02  -2.622118E-02  -2.114393E-02  -1.606443E-02  -1.124457E-02  -6.943110E-03  -3.374813E-03  -6.987441E-04  -2.372938E-06
  -9.999900E+02  -9.999900E+02  -9.999900E+02  -9.999900E+02  -9.999900E+02  -9.999900E+02  -9.999900E+02  -9.999900E+02  -9.999900E+02  -9.999900E+02  -9.999900E+02  -9.999900E+02  -9.999900E+02  -9.999900E+02  -9.999900E+02  -9.999900E+02  -9.999900E+02  -9.999900E+02  -9.999900E+02  -9.999900E+02  -9.999900E+02  -9.999900E+02  -9.999900E+02  -9.999900E+02  -9.999900E+02  -9.999900E+02  -9.999900E+02  -9.999900E+02  -9.999900E+02  -9.999900E+02  -9.999900E+02  -9.999900E+02  -9.999900E+02  -9.999900E+02  -9.999900E+02
   8.346203E-02   8.309222E-02   8.251389E-02   8.170117E-02   8.066980E-02   7.944410E-02   7.805180E-02   7.652149E-02   7.488108E-02   7.315675E-02   7.137241E-02   6.954931E-02   6.770600E-02   6.585822E-02   6.401915E-02   6.219956E-02   6.040803E-02   5.865132E-02   5.693452E-02   5.526136E-02   5.363443E-02   5.183004E-02   4.957899E-02   4.681348E-02   4.348400E-02   3.957790E-02   3.513859E-02   3.027783E-02   2.517416E-02   2.005651E-02   1.517784E-02   1.077963E-02   7.035771E-03   3.919433E-03  -2.372938E-06
        13         1          (35E15.6)        -1 #strt layer 4
  -1.222246E-01  -1.215829E-01  -1.205851E-01  -1.191926E-01  -1.174399E-01  -1.153759E-01  -1.130534E-01  -1.105250E-01  -1.078401E-01  -1.050434E-01  -1.021742E-01  -9.926611E-02  -9.634756E-02  -9.344174E-02  -9.056737E-02  -8.773908E-02  -8.496808E-02  -8.226272E-02  -7.962897E-02  -7.707081E-02  -7.459069E-02  -7.184713E-02  -6.843434E-02  -6.425448E-02  -5.923788E-02  -5.336987E-02  -4.671845E-02  -3.945250E-02  -3.184059E-02  -2.422948E-02  -1.700888E-02  -1.056515E-02  -5.219268E-03  -1.203197E-03  -6.511198E-06
  -9.999900E+02  -9.999900E+02  -9.999900E+02  -9.999900E+02  -9.999900E+02  -9.999900E+02  -9.999900E+02  -9.999900E+02  -9.999900E+02  -9.999900E+02  -9.999900E+02  -9.999900E+02  -9.999900E+02  -9.999900E+02  -9.999900E+02  -9.999900E+02  -9.999900E+02  -9.999900E+02  -9.999900E+02  -9.999900E+02  -9.999900E+02  -9.999900E+02  -9.999900E+02  -9.999900E+02  -9.999900E+02  -9.999900E+02  -9.999900E+02  -9.999900E+02  -9.999900E+02  -9.999900E+02  -9.999900E+02  -9.999900E+02  -9.999900E+02  -9.999900E+02  -9.999900E+02
   1.284486E-01   1.277953E-01   1.267817E-01   1.253689E-01   1.235930E-01   1.215048E-01   1.191587E-01   1.166081E-01   1.139026E-01   1.110867E-01   1.081994E-01   1.052740E-01   1.023387E-01   9.941671E-02   9.652676E-02   9.368353E-02   9.089831E-02   8.817951E-02   8.553312E-02   8.296313E-02   8.047199E-02   7.771670E-02   7.429001E-02   7.009411E-02   6.505935E-02   5.917085E-02   5.249567E-02   4.520032E-02   3.754896E-02   2.988075E-02   2.257206E-02   1.598353E-02   1.037579E-02   5.714833E-03  -6.511198E-06
        13         1          (35E15.6)        -1 #strt layer 5
  -1.700104E-01  -1.689256E-01  -1.672621E-01  -1.649737E-01  -1.621392E-01  -1.588567E-01  -1.552248E-01  -1.513344E-01  -1.472654E-01  -1.430858E-01  -1.388522E-01  -1.346107E-01  -1.303981E-01  -1.262434E-01  -1.221682E-01  -1.181887E-01  -1.143161E-01  -1.105579E-01  -1.069185E-01  -1.034001E-01  -1.000031E-01  -9.625889E-02  -9.162018E-02  -8.596350E-02  -7.920398E-02  -7.132910E-02  -6.243289E-02  -5.273842E-02  -4.259734E-02  -3.246451E-02  -2.285404E-02  -1.427807E-02  -7.162392E-03  -1.804720E-03  -1.383835E-05
  -9.999900E+02  -9.999900E+02  -9.999900E+02  -9.999900E+02  -9.999900E+02  -9.999900E+02  -9.999900E+02  -9.999900E+02  -9.999900E+02  -9.999900E+02  -9.999900E+02  -9.999900E+02  -9.999900E+02  -9.999900E+02  -9.999900E+02  -9.999900E+02  -9.999900E+02  -9.999900E+02  -9.999900E+02  -9.999900E+02  -9.999900E+02  -9.999900E+02  -9.999900E+02  -9.999900E+02  -9.999900E+02  -9.999900E+02  -9.999900E+02  -9.999900E+02  -9.999900E+02  -9.999900E+02  -9.999900E+02  -9.999900E+02  -9.999900E+02  -9.999900E+02  -9.999900E+02
   1.782666E-01   1.771374E-01   1.754133E-01   1.730490E-01   1.701315E-01   1.667666E-01   1.630588E-01   1.591020E-01   1.549767E-01   1.507496E-01   1.464755E-01   1.421988E-01   1.379551E-01   1.337724E-01   1.296718E-01   1.256690E-01   1.217751E-01   1.179973E-01   1.143399E-01   1.108050E-01   1.073929E-01   1.036329E-01   9.897570E-02   9.329797E-02   8.651484E-02   7.861341E-02   6.968620E-02   5.995302E-02   4.975964E-02   3.955089E-02   2.982323E-02   2.105474E-02   1.359257E-02   7.402265E-03  -1.383835E-05
        13         1          (35E15.6)        -1 #strt layer 6
  -2.255708E-01  -2.236269E-01  -2.207373E-01  -2.168805E-01  -2.122475E-01  -2.070400E-01  -2.014374E-01  -1.955877E-01  -1.896077E-01  -1.835876E-01  -1.775961E-01  -1.716850E-01  -1.658931E-01  -1.602482E-01  -1.547694E-01  -1.494685E-01  -1.443522E-01  -1.394226E-01  -1.346792E-01  -1.301190E-01  -1.257377E-01  -1.209292E-01  -1.150006E-01  -1.078077E-01  -9.925624E-02  -8.934068E-02  -7.818289E-02  -6.605822E-02  -5.339657E-02  -4.075556E-02  -2.876974E-02  -1.807483E-02  -9.199758E-03  -2.499177E-03  -2.526536E-05
  -9.999900E+02  -9.999900E+02  -9.999900E+02  -9.999900E+02  -9.999900E+02  -9.999900E+02  -9.999900E+02  -9.999900E+02  -9.999900E+02  -9.999900E+02  -9.999900E+02  -9.999900E+02  -9.999900E+02  -9.999900E+02  -9.999900E+02  -9.999900E+02  -9.999900E+02  -9.999900E+02  -9.999900E+02  -9.999900E+02  -9.999900E+02  -9.999900E+02  -9.999900E+02  -9.999900E+02  -9.999900E+02  -9.999900E+02  -9.999900E+02  -9.999900E+02  -9.999900E+02  -9.999900E+02  -9.999900E+02  -9.999900E+02  -9.999900E+02  -9.999900E+02  -9.999900E+02
   2.366101E-01   2.345008E-01   2.313904E-01   2.272680E-01   2.223563E-01   2.168845E-01   2.110500E-01   2.050083E-01   1.988754E-01   1.927356E-01   1.866506E-01   1.806656E-01   1.748139E-01   1.691196E-01   1.635990E-01   1.582624E-01   1.531150E-01   1.481582E-01   1.433906E-01   1.388089E-01   1.344083E-01   1.295800E-01   1.236287E-01   1.164104E-01   1.078307E-01   9.788324E-02   8.668781E-02   7.451550E-02   6.178892E-02   4.905333E-02   3.692144E-02   2.598673E-02   1.668257E-02   8.982325E-03  -2.526536E-05
        13         1          (35E15.6)        -1 #strt layer 7
  -2.948045E-01  -2.907053E-01  -2.850721E-01  -2.780336E-01  -2.700641E-01  -2.615638E-01  -2.528270E-01  -2.440551E-01  -2.353796E-01  -2.268836E-01  -2.186198E-01  -2.106217E-01  -2.029103E-01  -1.954971E-01  -1.883866E-01  -1.815771E-01  -1.750631E-01  -1.688357E-01  -1.628843E-01  -1.571970E-01  -1.517615E-01  -1.458236E-01  -1.385402E-01  -1.297523E-01  -1.193618E-01  -1.073748E-01  -9.394240E-02  -7.938991E-02  -6.422039E-02  -4.908867E-02  -3.474572E-02  -2.194842E-02  -1.132705E-02  -3.282893E-03  -4.170299E-05
  -9.999900E+02  -9.999900E+02  -9.999900E+02  -9.999900E+02  -9.999900E+02  -9.999900E+02  -9.999900E+02  -9.999900E+02  -9.999900E+02  -9.999900E+02  -9.999900E+02  -9.999900E+02  -9.999900E+02  -9.999900E+02  -9.999900E+02  -9.999900E+02  -9.999900E+02  -9.999900E+02  -9.999900E+02  -9.999900E+02  -9.999900E+02  -9.999900E+02  -9.999900E+02  -9.999900E+02  -9.999900E+02  -9.999900E+02  -9.999900E+02  -9.999900E+02  -9.999900E+02  -9.999900E+02  -9.999900E+02  -9.999900E+02  -9.999900E+02  -9.999900E+02  -9.999900E+02
   3.113113E-01   3.065641E-01   3.001269E-01   2.921872E-01   2.833293E-01   2.740320E-01   2.646305E-01   2.553349E-01   2.462631E-01   2.374745E-01   2.289963E-01   2.208402E-01   2.130106E-01   2.055076E-01   1.983271E-01   1.914622E-01   1.849031E-01   1.786386E-01   1.726559E-01   1.669419E-01   1.614833E-01   1.555222E-01   1.482128E-01   1.393961E-01   1.289739E-01   1.169507E-01   1.034747E-01   8.886610E-02   7.361925E-02   5.837451E-02   4.385685E-02   3.077302E-02   1.964219E-02   1.045518E-02  -4.170299E-05
        13         1          (35E15.6)        -1 #strt layer 8