# LPF package for SEAWAT generated by Flopy 3.4.3
        53    -1E+30         0  
         0         0         0         0         0         0         0         0         0         0         0         0         0         0         0         0
         0         0         0         0         0         0         0         0         0         0         0         0         0         0         0         0
   1.000000E+00   1.000000E+00   1.000000E+00   1.000000E+00   1.000000E+00   1.000000E+00   1.000000E+00   1.000000E+00   1.000000E+00   1.000000E+00   1.000000E+00   1.000000E+00   1.000000E+00   1.000000E+00   1.000000E+00   1.000000E+00
         0         0         0         0         0         0         0         0         0         0         0         0         0         0         0         0
         0         0         0         0         0         0         0         0         0         0         0         0         0         0         0         0
        15         1          (35E15.6)        -1 #hk layer 1
   3.926991E+00   1.178097E+01   1.963495E+01   2.748894E+01   3.534292E+01   4.319690E+01   5.105088E+01   5.890486E+01   6.675884E+01   7.461282E+01   8.246680E+01   9.032079E+01   9.817477E+01   1.060288E+02   1.138827E+02   1.217367E+02   1.295907E+02   1.374447E+02   1.452987E+02   1.531526E+02   1.610066E+02   1.700445E+02   1.818069E+02   1.971153E+02   2.170387E+02   2.429683E+02   2.767148E+02   3.206347E+02   3.777950E+02   4.521872E+02   5.490061E+02   6.750126E+02   8.390059E+02   1.052438E+03   1.330211E+03
   3.926991E+00   1.178097E+01   1.963495E+01   2.748894E+01   3.534292E+01   4.319690E+01   5.105088E+01   5.890486E+01   6.675884E+01   7.461282E+01   8.246680E+01   9.032079E+01   9.817477E+01   1.060288E+02   1.138827E+02   1.217367E+02   1.295907E+02   1.374447E+02   1.452987E+02   1.531526E+02   1.610066E+02   1.700445E+02   1.818069E+02   1.971153E+02   2.170387E+02   2.429683E+02   2.767148E+02   3.206347E+02   3.777950E+02   4.521872E+02   5.490061E+02   6.750126E+02   8.390059E+02   1.052438E+03   1.330211E+03
   3.926991E+00   1.178097E+01   1.963495E+01   2.748894E+01   3.534292E+01   4.319690E+01   5.105088E+01   5.890486E+01   6.675884E+01   7.461282E+01   8.246680E+01   9.032079E+01   9.817477E+01   1.060288E+02   1.138827E+02   1.217367E+02   1.295907E+02   1.374447E+02   1.452987E+02   1.531526E+02   1.610066E+02   1.700445E+02   1.818069E+02   1.971153E+02   2.170387E+02   2.429683E+02   2.767148E+02   3.206347E+02   3.777950E+02   4.521872E+02   5.490061E+02   6.750126E+02   8.390059E+02   1.052438E+03   1.330211E+03
        15         1          (35E15.6)        -1 #vka1
   7.853982E-01   2.356194E+00   3.926991E+00   5.497787E+00   7.068583E+00   8.639380E+00   1.021018E+01   1.178097E+01   1.335177E+01   1.492257E+01   1.649336E+01   1.806416E+01   1.963495E+01   2.120575E+01   2.277655E+01   2.434734E+01   2.591814E+01   2.748894E+01   2.905973E+01   3.063053E+01   3.220132E+01   3.400889E+01   3.636138E+01   3.942306E+01   4.340774E+01   4.859366E+01   5.534296E+01   6.412695E+01   7.555901E+01   9.043744E+01   1.098012E+02   1.350025E+02   1.678012E+02   2.104875E+02   2.660423E+02
   7.853982E-01   2.356194E+00   3.926991E+00   5.497787E+00   7.068583E+00   8.639380E+00   1.021018E+01   1.178097E+01   1.335177E+01   1.492257E+01   1.649336E+01   1.806416E+01   1.963495E+01   2.120575E+01   2.277655E+01   2.434734E+01   2.591814E+01   2.748894E+01   2.905973E+01   3.063053E+01   3.220132E+01   3.400889E+01   3.636138E+01   3.942306E+01   4.340774E+01   4.859366E+01   5.534296E+01   6.412695E+01   7.555901E+01   9.043744E+01   1.098012E+02   1.350025E+02   1.678012E+02   2.104875E+02   2.660423E+02
   7.853982E-01   2.356194E+00   3.926991E+00   5.497787E+00   7.068583E+00   8.639380E+00   1.021018E+01   1.178097E+01   1.335177E+01   1.492257E+01   1.649336E+01   1.806416E+01   1.963495E+01   2.120575E+01   2.277655E+01   2.434734E+01   2.591814E+01   2.748894E+01   2.905973E+01   3.063053E+01   3.220132E+01   3.400889E+01   3.636138E+01   3.942306E+01   4.340774E+01   4.859366E+01   5.534296E+01   6.412695E+01   7.555901E+01   9.043744E+01   1.098012E+02   1.350025E+02   1.678012E+02   2.104875E+02   2.660423E+02
        15         1          (35E15.6)        -1 #hk layer 2
   3.926991E+00   1.178097E+01   1.963495E+01   2.748894E+01   3.534292E+01   4.319690E+01   5.105088E+01   5.890486E+01   6.675884E+01   7.461282E+01   8.246680E+01   9.032079E+01   9.817477E+01   1.060288E+02   1.138827E+02   1.217367E+02   1.295907E+02   1.374447E+02   1.452987E+02   1.531526E+02   1.610066E+02   1.700445E+02   1.818069E+02   1.971153E+02   2.170387E+02   2.429683E+02   2.767148E+02   3.206347E+02   3.777950E+02   4.521872E+02   5.490061E+02   6.750126E+02   8.390059E+02   1.052438E+03   1.330211E+03
   3.926991E+00   1.178097E+01   1.963495E+01   2.748894E+01   3.534292E+01   4.319690E+01   5.105088E+01   5.890486E+01   6.675884E+01   7.461282E+01   8.246680E+01   9.032079E+01   9.817477E+01   1.060288E+02   1.138827E+02   1.217367E+02   1.295907E+02   1.374447E+02   1.452987E+02   1.531526E+02   1.610066E+02   1.700445E+02   1.818069E+02   1.971153E+02   2.170387E+02   2.429683E+02   2.767148E+02   3.206347E+02   3.777950E+02   4.521872E+02   5.490061E+02   6.750126E+02   8.390059E+02   1.052438E+03   1.330211E+03
   3.926991E+00   1.178097E+01   1.963495E+01   2.748894E+01   3.534292E+01   4.319690E+01   5.105088E+01   5.890486E+01   6.675884E+01   7.461282E+01   8.246680E+01   9.032079E+01   9.817477E+01   1.060288E+02   1.138827E+02   1.217367E+02   1.295907E+02   1.374447E+02   1.452987E+02   1.531526E+02   1.610066E+02   1.700445E+02   1.818069E+02   1.971153E+02   2.170387E+02   2.429683E+02   2.767148E+02   3.206347E+02   3.777950E+02   4.521872E+02   5.490061E+02   6.750126E+02   8.390059E+02   1.052438E+03   1.330211E+03
        15         1          (35E15.6)        -1 #vka2
   7.853982E-01   2.356194E+00   3.926991E+00   5.497787E+00   7.068583E+00   8.639380E+00   1.021018E+01   1.178097E+01   1.335177E+01   1.492257E+01   1.649336E+01   1.806416E+01   1.963495E+01   2.120575E+01   2.277655E+01   2.434734E+01   2.591814E+01   2.748894E+01   2.905973E+01   3.063053E+01   3.220132E+01   3.400889E+01   3.636138E+01   3.942306E+01   4.340774E+01   4.859366E+01   5.534296E+01   6.412695E+01   7.555901E+01   9.043744E+01   1.098012E+02   1.350025E+02   1.678012E+02   2.104875E+02   2.660423E+02
   7.853982E-01   2.356194E+00   3.926991E+00   5.497787E+00   7.068583E+00   8.639380E+00   1.021018E+01   1.178097E+01   1.335177E+01   1.492257E+01   1.649336E+01   1.806416E+01   1.963495E+01   2.120575E+01   2.277655E+01   2.434734E+01   2.591814E+01   2.748894E+01   2.905973E+01   3.063053E+01   3.220132E+01   3.400889E+01   3.636138E+01   3.942306E+01   4.340774E+01   4.859366E+01   5.534296E+01   6.412695E+01   7.555901E+01   9.043744E+01   1.098012E+02   1.350025E+02   1.678012E+02   2.104875E+02   2.660423E+02
   7.853982E-01   2.356194E+00   3.926991E+00   5.497787E+00   7.068583E+00   8.639380E+00   1.021018E+01   1.178097E+01   1.335177E+01   1.492257E+01   1.649336E+01   1.806416E+01   1.963495E+01   2.120575E+01   2.277655E+01   2.434734E+01   2.591814E+01   2.748894E+01   2.905973E+01   3.063053E+01   3.220132E+01   3.400889E+01   3.636138E+01   3.942306E+01   4.340774E+01   4.859366E+01   5.534296E+01   6.412695E+01   7.555901E+01   9.043744E+01   1.098012E+02   1.350025E+02   1.678012E+02   2.104875E+02   2.660423E+02
        15         1          (35E15.6)        -1 #hk layer 3
   3.926991E+00   1.178097E+01   1.963495E+01   2.748894E+01   3.534292E+01   4.319690E+01   5.105088E+01   5.890486E+01   6.675884E+01   7.461282E+01   8.246680E+01   9.032079E+01   9.817477E+01   1.060288E+02   1.138827E+02   1.217367E+02   1.295907E+02   1.374447E+02   1.452987E+02   1.531526E+02   1.610066E+02   1.700445E+02   1.818069E+02   1.971153E+02   2.170387E+02   2.429683E+02   2.767148E+02   3.206347E+02   3.777950E+02   4.521872E+02   5.490061E+02   6.750126E+02   8.390059E+02   1.052438E+03   1.330211E+03
   3.926991E+00   1.178097E+01   1.963495E+01   2.748894E+01   3.534292E+01   4.319690E+01   5.105088E+01   5.890486E+01   6.675884E+01   7.461282E+01   8.246680E+01   9.032079E+01   9.817477E+01   1.060288E+02   1.138827E+02   1.217367E+02   1.295907E+02   1.374447E+02   1.452987E+02   1.531526E+02   1.610066E+02   1.700445E+02   1.818069E+02   1.971153E+02   2.170387E+02   2.429683E+02   2.767148E+02   3.206347E+02   3.777950E+02   4.521872E+02   5.490061E+02   6.750126E+02   8.390059E+02   1.052438E+03   1.330211E+03
   3.926991E+00   1.178097E+01   1.963495E+01   2.748894E+01   3.534292E+01   4.319690E+01   5.105088E+01   5.890486E+01   6.675884E+01   7.461282E+01   8.246680E+01   9.032079E+01   9.817477E+01   1.060288E+02   1.138827E+02   1.217367E+02   1.295907E+02   1.374447E+02   1.452987E+02   1.531526E+02   1.610066E+02   1.700445E+02   1.818069E+02   1.971153E+02   2.170387E+02   2.429683E+02   2.767148E+02   3.206347E+02   3.777950E+02   4.521872E+02   5.490061E+02   6.750126E+02   8.390059E+02   1.052438E+03   1.330211E+03
        15         1          (35E15.6)        -1 #vka3
   7.853982E-01   2.356194E+00   3.926991E+00   5.497787E+00   7.068583E+00   8.639380E+00   1.021018E+01   1.178097E+01   1.335177E+01   1.492257E+01   1.649336E+01   1.806416E+01   1.963495E+01   2.120575E+01   2.277655E+01   2.434734E+01   2.591814E+01   2.748894E+01   2.905973E+01   3.063053E+01   3.220132E+01   3.400889E+01   3.636138E+01   3.942306E+01   4.340774E+01   4.859366E+01   5.534296E+01   6.412695E+01   7.555901E+01   9.043744E+01   1.098012E+02   1.350025E+02   1.678012E+02   2.104875E+02   2.660423E+02
   7.853982E-01   2.356194E+00   3.926991E+00   5.497787E+00   7.068583E+00   8.639380E+00   1.021018E+01   1.178097E+01   1.335177E+01   1.492257E+01   1.649336E+01   1.806416E+01   1.963495E+01   2.120575E+01   2.277655E+01   2.434734E+01   2.591814E+01   2.748894E+01   2.905973E+01   3.063053E+01   3.220132E+01   3.400889E+01   3.636138E+01   3.942306E+01   4.340774E+01   4.859366E+01   5.534296E+01   6.412695E+01   7.555901E+01   9.043744E+01   1.098012E+02   1.350025E+02   1.678012E+02   2.104875E+02   2.660423E+02
   7.853982E-01   2.356194E+00   3.926991E+00   5.497787E+00   7.068583E+00   8.639380E+00   1.021018E+01   1.178097E+01   1.335177E+01   1.492257E+01   1.649336E+01   1.806416E+01   1.963495E+01   2.120575E+01   2.277655E+01   2.434734E+01   2.591814E+01   2.748894E+01   2.905973E+01   3.063053E+01   3.220132E+01   3.400889E+01   3.636138E+01   3.942306E+01   4.340774E+01   4.859366E+01   5.534296E+01   6.412695E+01   7.555901E+01   9.043744E+01   1.098012E+02   1.350025E+02   1.678012E+02   2.104875E+02   2.660423E+02
        15         1          (35E15.6)        -1 #hk layer 4
   3.926991E+00   1.178097E+01   1.963495E+01   2.748894E+01   3.534292E+01   4.319690E+01   5.105088E+01   5.890486E+01   6.675884E+01   7.461282E+01   8.246680E+01   9.032079E+01   9.817477E+01   1.060288E+02   1.138827E+02   1.217367E+02   1.295907E+02   1.374447E+02   1.452987E+02   1.531526E+02   1.610066E+02   1.700445E+02   1.818069E+02   1.971153E+02   2.170387E+02   2.429683E+02   2.767148E+02   3.206347E+02   3.777950E+02   4.521872E+02   5.490061E+02   6.750126E+02   8.390059E+02   1.052438E+03   1.330211E+03
   3.926991E+00   1.178097E+01   1.963495E+01   2.748894E+01   3.534292E+01   4.319690E+01   5.105088E+01   5.890486E+01   6.675884E+01   7.461282E+01   8.246680E+01   9.032079E+01   9.817477E+01   1.060288E+02   1.138827E+02   1.217367E+02   1.295907E+02   1.374447E+02   1.452987E+02   1.531526E+02   1.610066E+02   1.700445E+02   1.818069E+02   1.971153E+02   2.170387E+02   2.429683E+02   2.767148E+02   3.206347E+02   3.777950E+02   4.521872E+02   5.490061E+02   6.750126E+02   8.390059E+02   1.052438E+03   1.330211E+03
   3.926991E+00   1.178097E+01   1.963495E+01   2.748894E+01   3.534292E+01   4.319690E+01   5.105088E+01   5.890486E+01   6.675884E+01   7.461282E+01   8.246680E+01   9.032079E+01   9.817477E+01   1.060288E+02   1.138827E+02   1.217367E+02   1.295907E+02   1.374447E+02   1.452987E+02   1.531526E+02   1.610066E+02   1.700445E+02   1.818069E+02   1.971153E+02   2.170387E+02   2.429683E+02   2.767148E+02   3.206347E+02   3.777950E+02   4.521872E+02   5.490061E+02   6.750126E+02   8.390059E+02   1.052438E+03   1.330211E+03
        15         1          (35E15.6)        -1 #vka4
   7.853982E-01   2.356194E+00   3.926991E+00   5.497787E+00   7.068583E+00   8.639380E+00   1.021018E+01   1.178097E+01   1.335177E+01   1.492257E+01   1.649336E+01   1.806416E+01   1.963495E+01   2.120575E+01   2.277655E+01   2.434734E+01   2.591814E+01   2.748894E+01   2.905973E+01   3.063053E+01   3.220132E+01   3.400889E+01   3.636138E+01   3.942306E+01   4.340774E+01   4.859366E+01   5.534296E+01   6.412695E+01   7.555901E+01   9.043744E+01   1.098012E+02   1.350025E+02   1.678012E+02   2.104875E+02   2.660423E+02
   7.853982E-01   2.356194E+00   3.926991E+00   5.497787E+00   7.068583E+00   8.639380E+00   1.021018E+01   1.178097E+01   1.335177E+01   1.492257E+01   1.649336E+01   1.806416E+01   1.963495E+01   2.120575E+01   2.277655E+01   2.434734E+01   2.591814E+01   2.748894E+01   2.905973E+01   3.063053E+01   3.220132E+01   3.400889E+01   3.636138E+01   3.942306E+01   4.340774E+01   4.859366E+01   5.534296E+01   6.412695E+01   7.555901E+01   9.043744E+01   1.098012E+02   1.350025E+02   1.678012E+02   2.104875E+02   2.660423E+02
   7.853982E-01   2.356194E+00   3.926991E+00   5.497787E+00   7.068583E+00   8.639380E+00   1.021018E+01   1.178097E+01   1.335177E+01   1.492257E+01   1.649336E+01   1.806416E+01   1.963495E+01   2.120575E+01   2.277655E+01   2.434734E+01   2.591814E+01   2.748894E+01   2.905973E+01   3.063053E+01   3.220132E+01   3.400889E+01   3.636138E+01   3.942306E+01   4.340774E+01   4.859366E+01   5.534296E+01   6.412695E+01   7.555901E+01   9.043744E+01   1.098012E+02   1.350025E+02   1.678012E+02   2.104875E+02   2.660423E+02
        15         1          (35E15.6)        -1 #hk layer 5
   3.926991E+00   1.178097E+01   1.963495E+01   2.748894E+01   3.534292E+01   4.319690E+01   5.105088E+01   5.890486E+01   6.675884E+01   7.461282E+01   8.246680E+01   9.032079E+01   9.817477E+01   1.060288E+02   1.138827E+02   1.217367E+02   1.295907E+02   1.374447E+02   1.452987E+02   1.531526E+02   1.610066E+02   1.700445E+02   1.818069E+02   1.971153E+02   2.170387E+02   2.429683E+02   2.767148E+02   3.206347E+02   3.777950E+02   4.521872E+02   5.490061E+02   6.750126E+02   8.390059E+02   1.052438E+03   1.330211E+03
   3.926991E+00   1.178097E+01   1.963495E+01   2.748894E+01   3.534292E+01   4.319690E+01   5.105088E+01   5.890486E+01   6.675884E+01   7.461282E+01   8.246680E+01   9.032079E+01   9.817477E+01   1.060288E+02   1.138827E+02   1.217367E+02   1.295907E+02   1.374447E+02   1.452987E+02   1.531526E+02   1.610066E+02   1.700445E+02   1.818069E+02   1.971153E+02   2.170387E+02   2.429683E+02   2.767148E+02   3.206347E+02   3.777950E+02   4.521872E+02   5.490061E+02   6.750126E+02   8.390059E+02   1.052438E+03   1.330211E+03
   3.926991E+00   1.178097E+01   1.963495E+01   2.748894E+01   3.534292E+01   4.319690E+01   5.105088E+01   5.890486E+01   6.675884E+01   7.461282E+01   8.246680E+01   9.032079E+01   9.817477E+01   1.060288E+02   1.138827E+02   1.217367E+02   1.295907E+02   1.374447E+02   1.452987E+02   1.531526E+02   1.610066E+02   1.700445E+02   1.818069E+02   1.971153E+02   2.170387E+02   2.429683E+02   2.767148E+02   3.206347E+02   3.777950E+02   4.521872E+02   5.490061E+02   6.750126E+02   8.390059E+02   1.052438E+03   1.330211E+03
        15         1          (35E15.6)        -1 #vka5
   7.853982E-01   2.356194E+00   3.926991E+00   5.497787E+00   7.068583E+00   8.639380E+00   1.021018E+01   1.178097E+01   1.335177E+01   1.492257E+01   1.649336E+01   1.806416E+01   1.963495E+01   2.120575E+01   2.277655E+01   2.434734E+01   2.591814E+01   2.748894E+01   2.905973E+01   3.063053E+01   3.220132E+01   3.400889E+01   3.636138E+01   3.942306E+01   4.340774E+01   4.859366E+01   5.534296E+01   6.412695E+01   7.555901E+01   9.043744E+01   1.098012E+02   1.350025E+02   1.678012E+02   2.104875E+02   2.660423E+02
   7.853982E-01   2.356194E+00   3.926991E+00   5.497787E+00   7.068583E+00   8.639380E+00   1.021018E+01   1.178097E+01   1.335177E+01   1.492257E+01   1.649336E+01   1.806416E+01   1.963495E+01   2.120575E+01   2.277655E+01   2.434734E+01   2.591814E+01   2.748894E+01   2.905973E+01   3.063053E+01   3.220132E+01   3.400889E+01   3.636138E+01   3.942306E+01   4.340774E+01   4.859366E+01   5.534296E+01   6.412695E+01   7.555901E+01   9.043744E+01   1.098012E+02   1.350025E+02   1.678012E+02   2.104875E+02   2.660423E+02
   7.853982E-01   2.356194E+00   3.926991E+00   5.497787E+00   7.068583E+00   8.639380E+00   1.021018E+01   1.178097E+01   1.335177E+01   1.492257E+01   1.649336E+01   1.806416E+01   1.963495E+01   2.120575E+01   2.277655E+01   2.434734E+01   2.591814E+01   2.748894E+01   2.905973E+01   3.063053E+01   3.220132E+01   3.400889E+01   3.636138E+01   3.942306E+01   4.340774E+01   4.859366E+01   5.534296E+01   6.412695E+01   7.555901E+01   9.043744E+01   1.098012E+02   1.350025E+02   1.678012E+02   2.104875E+02   2.660423E+02
        15         1          (35E15.6)        -1 #hk layer 6
   3.926991E+00   1.178097E+01   1.963495E+01   2.748894E+01   3.534292E+01   4.319690E+01   5.105088E+01   5.890486E+01   6.675884E+01   7.461282E+01   8.246680E+01   9.032079E+01   9.817477E+01   1.060288E+02   1.138827E+02   1.217367E+02   1.295907E+02   1.374447E+02   1.452987E+02   1.531526E+02   1.610066E+02   1.700445E+02   1.818069E+02   1.971153E+02   2.170387E+02   2.429683E+02   2.767148E+02   3.206347E+02   3.777950E+02   4.521872E+02   5.490061E+02   6.750126E+02   8.390059E+02   1.052438E+03   1.330211E+03
   3.926991E+00   1.178097E+01   1.963495E+01   2.748894E+01   3.534292E+01   4.319690E+01   5.105088E+01   5.890486E+01   6.675884E+01   7.461282E+01   8.246680E+01   9.032079E+01   9.817477E+01   1.060288E+02   1.138827E+02   1.217367E+02   1.295907E+02   1.374447E+02   1.452987E+02   1.531526E+02   1.610066E+02   1.700445E+02   1.818069E+02   1.971153E+02   2.170387E+02   2.429683E+02   2.767148E+02   3.206347E+02   3.777950E+02   4.521872E+02   5.490061E+02   6.750126E+02   8.390059E+02   1.052438E+03   1.330211E+03
   3.926991E+00   1.178097E+01   1.963495E+01   2.748894E+01   3.534292E+01   4.319690E+01   5.105088E+01   5.890486E+01   6.675884E+01   7.461282E+01   8.246680E+01   9.032079E+01   9.817477E+01   1.060288E+02   1.138827E+02   1.217367E+02   1.295907E+02   1.374447E+02   1.452987E+02   1.531526E+02   1.610066E+02   1.700445E+02   1.818069E+02   1.971153E+02   2.170387E+02   2.429683E+02   2.767148E+02   3.206347E+02   3.777950E+02   4.521872E+02   5.490061E+02   6.750126E+02   8.390059E+02   1.052438E+03   1.330211E+03
        15         1          (35E15.6)        -1 #vka6
   7.853982E-01   2.356194E+00   3.926991E+00   5.497787E+00   7.068583E+00   8.639380E+00   1.021018E+01   1.178097E+01   1.335177E+01   1.492257E+01   1.649336E+01   1.806416E+01   1.963495E+01   2.120575E+01   2.277655E+01   2.434734E+01   2.591814E+01   2.748894E+01   2.905973E+01   3.063053E+01   3.220132E+01   3.400889E+01   3.636138E+01   3.942306E+01   4.340774E+01   4.859366E+01   5.534296E+01   6.412695E+01   7.555901E+01   9.043744E+01   1.098012E+02   1.350025E+02   1.678012E+02   2.104875E+02   2.660423E+02
   7.853982E-01   2.356194E+00   3.926991E+00   5.497787E+00   7.068583E+00   8.639380E+00   1.021018E+01   1.178097E+01   1.335177E+01   1.492257E+01   1.649336E+01   1.806416E+01   1.963495E+01   2.120575E+01   2.277655E+01   2.434734E+01   2.591814E+01   2.748894E+01   2.905973E+01   3.063053E+01   3.220132E+01   3.400889E+01   3.636138E+01   3.942306E+01   4.340774E+01   4.859366E+01   5.534296E+01   6.412695E+01   7.555901E+01   9.043744E+01   1.098012E+02   1.350025E+02   1.678012E+02   2.104875E+02   2.660423E+02
   7.853982E-01   2.356194E+00   3.926991E+00   5.497787E+00   7.068583E+00   8.639380E+00   1.021018E+01   1.178097E+01   1.335177E+01   1.492257E+01   1.649336E+01   1.806416E+01   1.963495E+01   2.120575E+01   2.277655E+01   2.434734E+01   2.591814E+01   2.748894E+01   2.905973E+01   3.063053E+01   3.220132E+01   3.400889E+01   3.636138E+01   3.942306E+01   4.340774E+01   4.859366E+01   5.534296E+01   6.412695E+01   7.555901E+01   9.043744E+01   1.098012E+02   1.350025E+02   1.678012E+02   2.104875E+02   2.660423E+02
        15         1          (35E15.6)        -1 #hk layer 7
   3.926991E+00   1.178097E+01   1.963495E+01   2.748894E+01   3.534292E+01   4.319690E+01   5.105088E+01   5.890486E+01   6.675884E+01   7.461282E+01   8.246680E+01   9.032079E+01   9.817477E+01   1.060288E+02   1.138827E+02   1.217367E+02   1.295907E+02   1.374447E+02   1.452987E+02   1.531526E+02   1.610066E+02   1.700445E+02   1.818069E+02   1.971153E+02   2.170387E+02   2.429683E+02   2.767148E+02   3.206347E+02   3.777950E+02   4.521872E+02   5.490061E+02   6.750126E+02   8.390059E+02   1.052438E+03   1.330211E+03
   3.926991E+00   1.178097E+01   1.963495E+01   2.748894E+01   3.534292E+01   4.319690E+01   5.105088E+01   5.890486E+01   6.675884E+01   7.461282E+01   8.246680E+01   9.032079E+01   9.817477E+01   1.060288E+02   1.138827E+02   1.217367E+02   1.295907E+02   1.374447E+02   1.452987E+02   1.531526E+02   1.610066E+02   1.700445E+02   1.818069E+02   1.971153E+02   2.170387E+02   2.429683E+02   2.767148E+02   3.206347E+02   3.777950E+02   4.521872E+02   5.490061E+02   6.750126E+02   8.390059E+02   1.052438E+03   1.330211E+03
   3.926991E+00   1.178097E+01   1.963495E+01   2.748894E+01   3.534292E+01   4.319690E+01   5.105088E+01   5.890486E+01   6.675884E+01   7.461282E+01   8.246680E+01   9.032079E+01   9.817477E+01   1.060288E+02   1.138827E+02   1.217367E+02   1.295907E+02   1.374447E+02   1.452987E+02   1.531526E+02   1.610066E+02   1.700445E+02   1.818069E+02   1.971153E+02   2.170387E+02   2.429683E+02   2.767148E+02   3.206347E+02   3.777950E+02   4.521872E+02   5.490061E+02   6.750126E+02   8.390059E+02   1.052438E+03   1.330211E+03
        15         1          (35E15.6)        -1 #vka7
   7.853982E-01   2.356194E+00   3.926991E+00   5.497787E+00   7.068583E+00   8.639380E+00   1.021018E+01   1.178097E+01   1.335177E+01   1.492257E+01   1.649336E+01   1.806416E+01   1.963495E+01   2.120575E+01   2.277655E+01   2.434734E+01   2.591814E+01   2.748894E+01   2.905973E+01   3.063053E+01   3.220132E+01   3.400889E+01   3.636138E+01   3.942306E+01   4.340774E+01   4.859366E+01   5.534296E+01   6.412695E+01   7.555901E+01   9.043744E+01   1.098012E+02   1.350025E+02   1.678012E+02   2.104875E+02   2.660423E+02
   7.853982E-01   2.356194E+00   3.926991E+00   5.497787E+00   7.068583E+00   8.639380E+00   1.021018E+01   1.178097E+01   1.335177E+01   1.492257E+01   1.649336E+01   1.806416E+01   1.963495E+01   2.120575E+01   2.277655E+01   2.434734E+01   2.591814E+01   2.748894E+01   2.905973E+01   3.063053E+01   3.220132E+01   3.400889E+01   3.636138E+01   3.942306E+01   4.340774E+01   4.859366E+01   5.534296E+01   6.412695E+01   7.555901E+01   9.043744E+01   1.098012E+02   1.350025E+02   1.678012E+02   2.104875E+02   2.660423E+02
   7.853982E-01   2.356194E+00   3.926991E+00   5.497787E+00   7.068583E+00   8.639380E+00   1.021018E+01   1.178097E+01   1.335177E+01   1.492257E+01   1.649336E+01   1.806416E+01   1.963495E+01   2.120575E+01   2.277655E+01   2.434734E+01   2.591814E+01   2.748894E+01   2.905973E+01   3.063053E+01   3.220132E+01   3.400889E+01   3.636138E+01   3.942306E+01   4.340774E+01   4.859366E+01   5.534296E+01   6.412695E+01   7.555901E+01   9.043744E+01   1.098012E+02   1.350025E+02   1.678012E+02   2.104875E+02   2.660423E+02
        15         1          (35E15.6)        -1 #hk layer 8
   3.926991E+00   1.178097E+01   1.963495E+01   2.748894E+01   3.534292E+01   4.319690E+01   5.105088E+01   5.890486E+01   6.675884E+01   7.461282E+01   8.246680E+01   9.032079E+01   9.817477E+01   1.060288E+02   1.138827E+02   1.217367E+02   1.295907E+02   1.374447E+02   1.452987E+02   1.531526E+02   1.610066E+02   1.700445E+02   1.818069E+02   1.971153E+02   2.170387E+02   2.429683E+02   2.767148E+02   3.206347E+02   3.777950E+02   4.521872E+02   5.490061E+02   6.750126E+02   8.390059E+02   1.052438E+03   1.330211E+03
   3.926991E+00   1.178097E+01   1.963495E+01   2.748894E+01   3.534292E+01   4.319690E+01   5.105088E+01   5.890486E+01   6.675884E+01   7.461282E+01   8.246680E+01   9.032079E+01   9.817477E+01   1.060288E+02   1.138827E+02   1.217367E+02   1.295907E+02   1.374447E+02   1.452987E+02   1.531526E+02   1.610066E+02   1.700445E+02   1.818069E+02   1.971153E+02   2.170387E+02   2.429683E+02   2.767148E+02   3.206347E+02   3.777950E+02   4.521872E+02   5.490061E+02   6.750126E+02   8.390059E+02   1.052438E+03   1.330211E+03
   3.926991E+00   1.178097E+01   1.963495E+01   2.748894E+01   3.534292E+01   4.319690E+01   5.105088E+01   5.890486E+01   6.675884E+01   7.461282E+01   8.246680E+01   9.032079E+01   9.817477E+01   1.060288E+02   1.138827E+02   1.217367E+02   1.295907E+02   1.374447E+02   1.452987E+02   1.531526E+02   1.610066E+02   1.700445E+02   1.818069E+02   1.971153E+02   2.170387E+02   2.429683E+02   2.767148E+02   3.206347E+02   3.777950E+02   4.521872E+02   5.490061E+02   6.750126E+02   8.390059E+02   1.052438E+03   1.330211E+03
        15         1          (35E15.6)        -1 #vka8
   7.853982E-01   2.356194E+00   3.926991E+00   5.497787E+00   7.068583E+00   8.639380E+00   1.021018E+01   1.178097E+01   1.335177E+01   1.492257E+01   1.649336E+01   1.806416E+01   1.963495E+01   2.120575E+01   2.277655E+01   2.434734E+01   2.591814E+01   2.748894E+01   2.905973E+01   3.063053E+01   3.220132E+01   3.400889E+01   3.636138E+01   3.942306E+01   4.340774E+01   4.859366E+01   5.534296E+01   6.412695E+01   7.555901E+01   9.043744E+01   1.098012E+02   1.350025E+02   1.678012E+02   2.104875E+02   2.660423E+02
   7.853982E-01   2.356194E+00   3.926991E+00   5.497787E+00   7.068583E+00   8.639380E+00   1.021018E+01   1.178097E+01   1.335177E+01   1.492257E+01   1.649336E+01   1.806416E+01   1.963495E+01   2.120575E+01   2.277655E+01   2.434734E+01   2.591814E+01   2.748894E+01   2.905973E+01   3.063053E+01   3.220132E+01   3.400889E+01   3.636138E+01   3.942306E+01   4.340774E+01   4.859366E+01   5.534296E+01   6.412695E+01   7.555901E+01   9.043744E+01   1.098012E+02   1.350025E+02   1.678012E+02   2.104875E+02   2.660423E+02
   7.853982E-01   2.356194E+00   3.926991E+00   5.497787E+00   7.068583E+00   8.639380E+00   1.021018E+01   1.178097E+01   1.335177E+01   1.492257E+01   1.649336E+01   1.806416E+01   1.963495E+01   2.120575E+01   2.277655E+01   2.434734E+01   2.591814E+01   2.748894E+01   2.905973E+01   3.063053E+01   3.220132E+01   3.400889E+01   3.636138E+01   3.942306E+01   4.340774E+01   4.859366E+01   5.534296E+01   6.412695E+01   7.555901E+01   9.043744E+01   1.098012E+02   1.350025E+02   1.678012E+02   2.104875E+02   2.660423E+02
        15         1          (35E15.6)        -1 #hk layer 9
   3.926991E+00   1.178097E+01   1.963495E+01   2.748894E+01   3.534292E+01   4.319690E+01   5.105088E+01   5.890486E+01   6.675884E+01   7.461282E+01   8.246680E+01   9.032079E+01   9.817477E+01   1.060288E+02   1.138827E+02   1.217367E+02   1.295907E+02   1.374447E+02   1.452987E+02   1.531526E+02   1.610066E+02   1.700445E+02   1.818069E+02   1.971153E+02   2.170387E+02   2.429683E+02   2.767148E+02   3.206347E+02   3.777950E+02   4.521872E+02   5.490061E+02   6.750126E+02   8.390059E+02   1.052438E+03   1.330211E+03
   3.926991E+00   1.178097E+01   1.963495E+01   2.748894E+01   3.534292E+01   4.319690E+01   5.105088E+01   5.890486E+01   6.675884E+01   7.461282E+01   8.246680E+01   9.032079E+01   9.817477E+01   1.060288E+02   1.138827E+02   1.217367E+02   1.295907E+02   1.374447E+02   1.452987E+02   1.531526E+02   1.610066E+02   1.700445E+02   1.818069E+02   1.971153E+02   2.170387E+02   2.429683E+02   2.767148E+02   3.206347E+02   3.777950E+02   4.521872E+02   5.490061E+02   6.750126E+02   8.390059E+02   1.052438E+03   1.330211E+03
   3.926991E+00   1.178097E+01   1.963495E+01   2.748894E+01   3.534292E+01   4.319690E+01   5.105088E+01   5.890486E+01   6.675884E+01   7.461282E+01   8.246680E+01   9.032079E+01   9.817477E+01   1.060288E+02   1.138827E+02   1.217367E+02   1.295907E+02   1.374447E+02   1.452987E+02   1.531526E+02   1.610066E+02   1.700445E+02   1.818069E+02   1.971153E+02   2.170387E+02   2.429683E+02   2.767148E+02   3.206347E+02   3.777950E+02   4.521872E+02   5.490061E+02   6.750126E+02   8.390059E+02   1.052438E+03   1.330211E+03
        15         1          (35E15.6)        -1 #vka9
   7.853982E-01   2.356194E+00   3.926991E+00   5.497787E+00   7.068583E+00   8.639380E+00   1.021018E+01   1.178097E+01   1.335177E+01   1.492257E+01   1.649336E+01   1.806416E+01   1.963495E+01   2.120575E+01   2.277655E+01   2.434734E+01   2.591814E+01   2.748894E+01   2.905973E+01   3.063053E+01   3.220132E+01   3.400889E+01   3.636138E+01   3.942306E+01   4.340774E+01   4.859366E+01   5.534296E+01   6.412695E+01   7.555901E+01   9.043744E+01   1.098012E+02   1.350025E+02   1.678012E+02   2.104875E+02   2.660423E+02
   7.853982E-01   2.356194E+00   3.926991E+00   5.497787E+00   7.068583E+00   8.639380E+00   1.021018E+01   1.178097E+01   1.335177E+01   1.492257E+01   1.649336E+01   1.806416E+01   1.963495E+01   2.120575E+01   2.277655E+01   2.434734E+01   2.591814E+01   2.748894E+01   2.905973E+01   3.063053E+01   3.220132E+01   3.400889E+01   3.636138E+01   3.942306E+01   4.340774E+01   4.859366E+01   5.534296E+01   6.412695E+01   7.555901E+01   9.043744E+01   1.098012E+02   1.350025E+02   1.678012E+02   2.104875E+02   2.660423E+02