# DIS package for SEAWAT generated by Flopy 3.4.3
        16         3        35         1         4         2
  0  0  0  0  0  0  0  0  0  0  0  0  0  0  0  0
        11         1          (35E15.6)        -1 #delr
   5.000000E+00   5.000000E+00   5.000000E+00   5.000000E+00   5.000000E+00   5.000000E+00   5.000000E+00   5.000000E+00   5.000000E+00   5.000000E+00   5.000000E+00   5.000000E+00   5.000000E+00   5.000000E+00   5.000000E+00   5.000000E+00   5.000000E+00   5.000000E+00   5.000000E+00   5.000000E+00   5.000000E+00   6.507330E+00   8.469069E+00   1.102221E+01   1.434503E+01   1.866957E+01   2.429781E+01   3.162278E+01   4.115597E+01   5.356310E+01   6.971056E+01   9.072593E+01   1.180767E+02   1.536729E+02   2.000000E+02
        11         1           (3E15.6)        -1 #delc
   1.000000E+00   1.000000E+00   1.000000E+00
        11         1          (35E15.6)        -1 #model_top
   0.000000E+00   0.000000E+00   0.000000E+00   0.000000E+00   0.000000E+00   0.000000E+00   0.000000E+00   0.000000E+00   0.000000E+00   0.000000E+00   0.000000E+00   0.000000E+00   0.000000E+00   0.000000E+00   0.000000E+00   0.000000E+00   0.000000E+00   0.000000E+00   0.000000E+00   0.000000E+00   0.000000E+00   0.000000E+00   0.000000E+00   0.000000E+00   0.000000E+00   0.000000E+00   0.000000E+00   0.000000E+00   0.000000E+00   0.000000E+00   0.000000E+00   0.000000E+00   0.000000E+00   0.000000E+00   0.000000E+00
   0.000000E+00   0.000000E+00   0.000000E+00   0.000000E+00   0.000000E+00   0.000000E+00   0.000000E+00   0.000000E+00   0.000000E+00   0.000000E+00   0.000000E+00   0.000000E+00   0.000000E+00   0.000000E+00   0.000000E+00   0.000000E+00   0.000000E+00   0.000000E+00   0.000000E+00   0.000000E+00   0.000000E+00   0.000000E+00   0.000000E+00   0.000000E+00   0.000000E+00   0.000000E+00   0.000000E+00   0.000000E+00   0.000000E+00   0.000000E+00   0.000000E+00   0.000000E+00   0.000000E+00   0.000000E+00   0.000000E+00
   0.000000E+00   0.000000E+00   0.000000E+00   0.000000E+00   0.000000E+00   0.000000E+00   0.000000E+00   0.000000E+00   0.000000E+00   0.000000E+00   0.000000E+00   0.000000E+00   0.000000E+00   0.000000E+00   0.000000E+00   0.000000E+00   0.000000E+00   0.000000E+00   0.000000E+00   0.000000E+00   0.000000E+00   0.000000E+00   0.000000E+00   0.000000E+00   0.000000E+00   0.000000E+00   0.000000E+00   0.000000E+00   0.000000E+00   0.000000E+00   0.000000E+00   0.000000E+00   0.000000E+00   0.000000E+00   0.000000E+00
        11         1          (35E15.6)        -1 #botm layer 1
  -5.000000E+00  -5.000000E+00  -5.000000E+00  -5.000000E+00  -5.000000E+00  -5.000000E+00  -5.000000E+00  -5.000000E+00  -5.000000E+00  -5.000000E+00  -5.000000E+00  -5.000000E+00  -5.000000E+00  -5.000000E+00  -5.000000E+00  -5.000000E+00  -5.000000E+00  -5.000000E+00  -5.000000E+00  -5.000000E+00  -5.000000E+00  -5.000000E+00  -5.000000E+00  -5.000000E+00  -5.000000E+00  -5.000000E+00  -5.000000E+00  -5.000000E+00  -5.000000E+00  -5.000000E+00  -5.000000E+00  -5.000000E+00  -5.000000E+00  -5.000000E+00  -5.000000E+00
  -5.000000E+00  -5.000000E+00  -5.000000E+00  -5.000000E+00  -5.000000E+00  -5.000000E+00  -5.000000E+00  -5.000000E+00  -5.000000E+00  -5.000000E+00  -5.000000E+00  -5.000000E+00  -5.000000E+00  -5.000000E+00  -5.000000E+00  -5.000000E+00  -5.000000E+00  -5.000000E+00  -5.000000E+00  -5.000000E+00  -5.000000E+00  -5.000000E+00  -5.000000E+00  -5.000000E+00  -5.000000E+00  -5.000000E+00  -5.000000E+00  -5.000000E+00  -5.000000E+00  -5.000000E+00  -5.000000E+00  -5.000000E+00  -5.000000E+00  -5.000000E+00  -5.000000E+00
  -5.000000E+00  -5.000000E+00  -5.000000E+00  -5.000000E+00  -5.000000E+00  -5.000000E+00  -5.000000E+00  -5.000000E+00  -5.000000E+00  -5.000000E+00  -5.000000E+00  -5.000000E+00  -5.000000E+00  -5.000000E+00  -5.000000E+00  -5.000000E+00  -5.000000E+00  -5.000000E+00  -5.000000E+00  -5.000000E+00  -5.000000E+00  -5.000000E+00  -5.000000E+00  -5.000000E+00  -5.000000E+00  -5.000000E+00  -5.000000E+00  -5.000000E+00  -5.000000E+00  -5.000000E+00  -5.000000E+00  -5.000000E+00  -5.000000E+00  -5.000000E+00  -5.000000E+00
        11         1          (35E15.6)        -1 #botm layer 2
  -1.000000E+01  -1.000000E+01  -1.000000E+01  -1.000000E+01  -1.000000E+01  -1.000000E+01  -1.000000E+01  -1.000000E+01  -1.000000E+01  -1.000000E+01  -1.000000E+01  -1.000000E+01  -1.000000E+01  -1.000000E+01  -1.000000E+01  -1.000000E+01  -1.000000E+01  -1.000000E+01  -1.000000E+01  -1.000000E+01  -1.000000E+01  -1.000000E+01  -1.000000E+01  -1.000000E+01  -1.000000E+01  -1.000000E+01  -1.000000E+01  -1.000000E+01  -1.000000E+01  -1.000000E+01  -1.000000E+01  -1.000000E+01  -1.000000E+01  -1.000000E+01  -1.000000E+01
  -1.000000E+01  -1.000000E+01  -1.000000E+01  -1.000000E+01  -1.000000E+01  -1.000000E+01  -1.000000E+01  -1.000000E+01  -1.000000E+01  -1.000000E+01  -1.000000E+01  -1.000000E+01  -1.000000E+01  -1.000000E+01  -1.000000E+01  -1.000000E+01  -1.000000E+01  -1.000000E+01  -1.000000E+01  -1.000000E+01  -1.000000E+01  -1.000000E+01  -1.000000E+01  -1.000000E+01  -1.000000E+01  -1.000000E+01  -1.000000E+01  -1.000000E+01  -1.000000E+01  -1.000000E+01  -1.000000E+01  -1.000000E+01  -1.000000E+01  -1.000000E+01  -1.000000E+01
  -1.000000E+01  -1.000000E+01  -1.000000E+01  -1.000000E+01  -1.000000E+01  -1.000000E+01  -1.000000E+01  -1.000000E+01  -1.000000E+01  -1.000000E+01  -1.000000E+01  -1.000000E+01  -1.000000E+01  -1.000000E+01  -1.000000E+01  -1.000000E+01  -1.000000E+01  -1.000000E+01  -1.000000E+01  -1.000000E+01  -1.000000E+01  -1.000000E+01  -1.000000E+01  -1.000000E+01  -1.000000E+01  -1.000000E+01  -1.000000E+01  -1.000000E+01  -1.000000E+01  -1.000000E+01  -1.000000E+01  -1.000000E+01  -1.000000E+01  -1.000000E+01  -1.000000E+01
        11         1          (35E15.6)        -1 #botm layer 3
  -1.500000E+01  -1.500000E+01  -1.500000E+01  -1.500000E+01  -1.500000E+01  -1.500000E+01  -1.500000E+01  -1.500000E+01  -1.500000E+01  -1.500000E+01  -1.500000E+01  -1.500000E+01  -1.500000E+01  -1.500000E+01  -1.500000E+01  -1.500000E+01  -1.500000E+01  -1.500000E+01  -1.500000E+01  -1.500000E+01  -1.500000E+01  -1.500000E+01  -1.500000E+01  -1.500000E+01  -1.500000E+01  -1.500000E+01  -1.500000E+01  -1.500000E+01  -1.500000E+01  -1.500000E+01  -1.500000E+01  -1.500000E+01  -1.500000E+01  -1.500000E+01  -1.500000E+01
  -1.500000E+01  -1.500000E+01  -1.500000E+01  -1.500000E+01  -1.500000E+01  -1.500000E+01  -1.500000E+01  -1.500000E+01  -1.500000E+01  -1.500000E+01  -1.500000E+01  -1.500000E+01  -1.500000E+01  -1.500000E+01  -1.500000E+01  -1.500000E+01  -1.500000E+01  -1.500000E+01  -1.500000E+01  -1.500000E+01  -1.500000E+01  -1.500000E+01  -1.500000E+01  -1.500000E+01  -1.500000E+01  -1.500000E+01  -1.500000E+01  -1.500000E+01  -1.500000E+01  -1.500000E+01  -1.500000E+01  -1.500000E+01  -1.500000E+01  -1.500000E+01  -1.500000E+01
  -1.500000E+01  -1.500000E+01  -1.500000E+01  -1.500000E+01  -1.500000E+01  -1.500000E+01  -1.500000E+01  -1.500000E+01  -1.500000E+01  -1.500000E+01  -1.500000E+01  -1.500000E+01  -1.500000E+01  -1.500000E+01  -1.500000E+01  -1.500000E+01  -1.500000E+01  -1.500000E+01  -1.500000E+01  -1.500000E+01  -1.500000E+01  -1.500000E+01  -1.500000E+01  -1.500000E+01  -1.500000E+01  -1.500000E+01  -1.500000E+01  -1.500000E+01  -1.500000E+01  -1.500000E+01  -1.500000E+01  -1.500000E+01  -1.500000E+01  -1.500000E+01  -1.500000E+01
        11         1          (35E15.6)        -1 #botm layer 4
  -2.000000E+01  -2.000000E+01  -2.000000E+01  -2.000000E+01  -2.000000E+01  -2.000000E+01  -2.000000E+01  -2.000000E+01  -2.000000E+01  -2.000000E+01  -2.000000E+01  -2.000000E+01  -2.000000E+01  -2.000000E+01  -2.000000E+01  -2.000000E+01  -2.000000E+01  -2.000000E+01  -2.000000E+01  -2.000000E+01  -2.000000E+01  -2.000000E+01  -2.000000E+01  -2.000000E+01  -2.000000E+01  -2.000000E+01  -2.000000E+01  -2.000000E+01  -2.000000E+01  -2.000000E+01  -2.000000E+01  -2.000000E+01  -2.000000E+01  -2.000000E+01  -2.000000E+01
  -2.000000E+01  -2.000000E+01  -2.000000E+01  -2.000000E+01  -2.000000E+01  -2.000000E+01  -2.000000E+01  -2.000000E+01  -2.000000E+01  -2.000000E+01  -2.000000E+01  -2.000000E+01  -2.000000E+01  -2.000000E+01  -2.000000E+01  -2.000000E+01  -2.000000E+01  -2.000000E+01  -2.000000E+01  -2.000000E+01  -2.000000E+01  -2.000000E+01  -2.000000E+01  -2.000000E+01  -2.000000E+01  -2.000000E+01  -2.000000E+01  -2.000000E+01  -2.000000E+01  -2.000000E+01  -2.000000E+01  -2.000000E+01  -2.000000E+01  -2.000000E+01  -2.000000E+01
  -2.000000E+01  -2.000000E+01  -2.000000E+01  -2.000000E+01  -2.000000E+01  -2.000000E+01  -2.000000E+01  -2.000000E+01  -2.000000E+01  -2.000000E+01  -2.000000E+01  -2.000000E+01  -2.000000E+01  -2.000000E+01  -2.000000E+01  -2.000000E+01  -2.000000E+01  -2.000000E+01  -2.000000E+01  -2.000000E+01  -2.000000E+01  -2.000000E+01  -2.000000E+01  -2.000000E+01  -2.000000E+01  -2.000000E+01  -2.000000E+01  -2.000000E+01  -2.000000E+01  -2.000000E+01  -2.000000E+01  -2.000000E+01  -2.000000E+01  -2.000000E+01  -2.000000E+01
        11         1          (35E15.6)        -1 #botm layer 5
  -2.500000E+01  -2.500000E+01  -2.500000E+01  -2.500000E+01  -2.500000E+01  -2.500000E+01  -2.500000E+01  -2.500000E+01  -2.500000E+01  -2.500000E+01  -2.500000E+01  -2.500000E+01  -2.500000E+01  -2.500000E+01  -2.500000E+01  -2.500000E+01  -2.500000E+01  -2.500000E+01  -2.500000E+01  -2.500000E+01  -2.500000E+01  -2.500000E+01  -2.500000E+01  -2.500000E+01  -2.500000E+01  -2.500000E+01  -2.500000E+01  -2.500000E+01  -2.500000E+01  -2.500000E+01  -2.500000E+01  -2.500000E+01  -2.500000E+01  -2.500000E+01  -2.500000E+01
  -2.500000E+01  -2.500000E+01  -2.500000E+01  -2.500000E+01  -2.500000E+01  -2.500000E+01  -2.500000E+01  -2.500000E+01  -2.500000E+01  -2.500000E+01  -2.500000E+01  -2.500000E+01  -2.500000E+01  -2.500000E+01  -2.500000E+01  -2.500000E+01  -2.500000E+01  -2.500000E+01  -2.500000E+01  -2.500000E+01  -2.500000E+01  -2.500000E+01  -2.500000E+01  -2.500000E+01  -2.500000E+01  -2.500000E+01  -2.500000E+01  -2.500000E+01  -2.500000E+01  -2.500000E+01  -2.500000E+01  -2.500000E+01  -2.500000E+01  -2.500000E+01  -2.500000E+01
  -2.500000E+01  -2.500000E+01  -2.500000E+01  -2.500000E+01  -2.500000E+01  -2.500000E+01  -2.500000E+01  -2.500000E+01  -2.500000E+01  -2.500000E+01  -2.500000E+01  -2.500000E+01  -2.500000E+01  -2.500000E+01  -2.500000E+01  -2.500000E+01  -2.500000E+01  -2.500000E+01  -2.500000E+01  -2.500000E+01  -2.500000E+01  -2.500000E+01  -2.500000E+01  -2.500000E+01  -2.500000E+01  -2.500000E+01  -2.500000E+01  -2.500000E+01  -2.500000E+01  -2.500000E+01  -2.500000E+01  -2.500000E+01  -2.500000E+01  -2.500000E+01  -2.500000E+01
        11         1          (35E15.6)        -1 #botm layer 6
  -3.000000E+01  -3.000000E+01  -3.000000E+01  -3.000000E+01  -3.000000E+01  -3.000000E+01  -3.000000E+01  -3.000000E+01  -3.000000E+01  -3.000000E+01  -3.000000E+01  -3.000000E+01  -3.000000E+01  -3.000000E+01  -3.000000E+01  -3.000000E+01  -3.000000E+01  -3.000000E+01  -3.000000E+01  -3.000000E+01  -3.000000E+01  -3.000000E+01  -3.000000E+01  -3.000000E+01  -3.000000E+01  -3.000000E+01  -3.000000E+01  -3.000000E+01  -3.000000E+01  -3.000000E+01  -3.000000E+01  -3.000000E+01  -3.000000E+01  -3.000000E+01  -3.000000E+01
  -3.000000E+01  -3.000000E+01  -3.000000E+01  -3.000000E+01  -3.000000E+01  -3.000000E+01  -3.000000E+01  -3.000000E+01  -3.000000E+01  -3.000000E+01  -3.000000E+01  -3.000000E+01  -3.000000E+01  -3.000000E+01  -3.000000E+01  -3.000000E+01  -3.000000E+01  -3.000000E+01  -3.000000E+01  -3.000000E+01  -3.000000E+01  -3.000000E+01  -3.000000E+01  -3.000000E+01  -3.000000E+01  -3.000000E+01  -3.000000E+01  -3.000000E+01  -3.000000E+01  -3.000000E+01  -3.000000E+01  -3.000000E+01  -3.000000E+01  -3.000000E+01  -3.000000E+01
  -3.000000E+01  -3.000000E+01  -3.000000E+01  -3.000000E+01  -3.000000E+01  -3.000000E+01  -3.000000E+01  -3.000000E+01  -3.000000E+01  -3.000000E+01  -3.000000E+01  -3.000000E+01  -3.000000E+01  -3.000000E+01  -3.000000E+01  -3.000000E+01  -3.000000E+01  -3.000000E+01  -3.000000E+01  -3.000000E+01  -3.000000E+01  -3.000000E+01  -3.000000E+01  -3.000000E+01  -3.000000E+01  -3.000000E+01  -3.000000E+01  -3.000000E+01  -3.000000E+01  -3.000000E+01  -3.000000E+01  -3.000000E+01  -3.000000E+01  -3.000000E+01  -3.000000E+01
        11         1          (35E15.6)        -1 #botm layer 7
  -3.500000E+01  -3.500000E+01  -3.500000E+01  -3.500000E+01  -3.500000E+01  -3.500000E+01  -3.500000E+01  -3.500000E+01  -3.500000E+01  -3.500000E+01  -3.500000E+01  -3.500000E+01  -3.500000E+01  -3.500000E+01  -3.500000E+01  -3.500000E+01  -3.500000E+01  -3.500000E+01  -3.500000E+01  -3.500000E+01  -3.500000E+01  -3.500000E+01  -3.500000E+01  -3.500000E+01  -3.500000E+01  -3.500000E+01  -3.500000E+01  -3.500000E+01  -3.500000E+01  -3.500000E+01  -3.500000E+01  -3.500000E+01  -3.500000E+01  -3.500000E+01  -3.500000E+01
  -3.500000E+01  -3.500000E+01  -3.500000E+01  -3.500000E+01  -3.500000E+01  -3.500000E+01  -3.500000E+01  -3.500000E+01  -3.500000E+01  -3.500000E+01  -3.500000E+01  -3.500000E+01  -3.500000E+01  -3.500000E+01  -3.500000E+01  -3.500000E+01  -3.500000E+01  -3.500000E+01  -3.500000E+01  -3.500000E+01  -3.500000E+01  -3.500000E+01  -3.500000E+01  -3.500000E+01  -3.500000E+01  -3.500000E+01  -3.500000E+01  -3.500000E+01  -3.500000E+01  -3.500000E+01  -3.500000E+01  -3.500000E+01  -3.500000E+01  -3.500000E+01  -3.500000E+01
  -3.500000E+01  -3.500000E+01  -3.500000E+01  -3.500000E+01  -3.500000E+01  -3.500000E+01  -3.500000E+01  -3.500000E+01  -3.500000E+01  -3.500000E+01  -3.500000E+01  -3.500000E+01  -3.500000E+01  -3.500000E+01  -3.500000E+01  -3.500000E+01  -3.500000E+01  -3.500000E+01  -3.500000E+01  -3.500000E+01  -3.500000E+01  -3.500000E+01  -3.500000E+01  -3.500000E+01  -3.500000E+01  -3.500000E+01  -3.500000E+01  -3.500000E+01  -3.500000E+01  -3.500000E+01  -3.500000E+01  -3.500000E+01  -3.500000E+01  -3.500000E+01  -3.500000E+01
        11         1          (35E15.6)        -1 #botm layer 8
  -4.000000E+01  -4.000000E+01  -4.000000E+01  -4.000000E+01  -4.000000E+01  -4.000000E+01  -4.000000E+01  -4.000000E+01  -4.000000E+01  -4.000000E+01  -4.000000E+01  -4.000000E+01  -4.000000E+01  -4.000000E+01  -4.000000E+01  -4.000000E+01  -4.000000E+01  -4.000000E+01  -4.000000E+01  -4.000000E+01  -4.000000E+01  -4.000000E+01  -4.000000E+01  -4.000000E+01  -4.000000E+01  -4.000000E+01  -4.000000E+01  -4.000000E+01  -4.000000E+01  -4.000000E+01  -4.000000E+01  -4.000000E+01  -4.000000E+01  -4.000000E+01  -4.000000E+01
  -4.000000E+01  -4.000000E+01  -4.000000E+01  -4.000000E+01  -4.000000E+01  -4.000000E+01  -4.000000E+01  -4.000000E+01  -4.000000E+01  -4.000000E+01  -4.000000E+01  -4.000000E+01  -4.000000E+01  -4.000000E+01  -4.000000E+01  -4.000000E+01  -4.000000E+01  -4.000000E+01  -4.000000E+01  -4.000000E+01  -4.000000E+01  -4.000000E+01  -4.000000E+01  -4.000000E+01  -4.000000E+01  -4.000000E+01  -4.000000E+01  -4.000000E+01  -4.000000E+01  -4.000000E+01  -4.000000E+01  -4.000000E+01  -4.000000E+01  -4.000000E+01  -4.000000E+01
  -4.000000E+01  -4.000000E+01  -4.000000E+01  -4.000000E+01  -4.000000E+01  -4.000000E+01  -4.000000E+01  -4.000000E+01  -4.000000E+01  -4.000000E+01  -4.000000E+01  -4.000000E+01  -4.000000E+01  -4.000000E+01  -4.000000E+01  -4.000000E+01  -4.000000E+01  -4.000000E+01  -4.000000E+01  -4.000000E+01  -4.000000E+01  -4.000000E+01  -4.000000E+01  -4.000000E+01  -4.000000E+01  -4.000000E+01  -4.000000E+01  -4.000000E+01  -4.000000E+01  -4.000000E+01  -4.000000E+01  -4.000000E+01  -4.000000E+01  -4.000000E+01  -4.000000E+01
        11         1          (35E15.6)        -1 #botm layer 9
  -4.500000E+01  -4.500000E+01  -4.500000E+01  -4.500000E+01  -4.500000E+01  -4.500000E+01  -4.500000E+01  -4.500000E+01  -4.500000E+01  -4.500000E+01  -4.500000E+01  -4.500000E+01  -4.500000E+01  -4.500000E+01  -4.500000E+01  -4.500000E+01  -4.500000E+01  -4.500000E+01  -4.500000E+01  -4.500000E+01  -4.500000E+01  -4.500000E+01  -4.500000E+01  -4.500000E+01  -4.500000E+01  -4.500000E+01  -4.500000E+01  -4.500000E+01  -4.500000E+01  -4.500000E+01  -4.500000E+01  -4.500000E+01  -4.500000E+01  -4.500000E+01  -4.500000E+01
  -4.500000E+01  -4.500000E+01  -4.500000E+01  -4.500000E+01  -4.500000E+01  -4.500000E+01  -4.500000E+01  -4.500000E+01  -4.500000E+01  -4.500000E+01  -4.500000E+01  -4.500000E+01  -4.500000E+01  -4.500000E+01  -4.500000E+01  -4.500000E+01  -4.500000E+01  -4.500000E+01  -4.500000E+01  -4.500000E+01  -4.500000E+01  -4.500000E+01  -4.500000E+01  -4.500000E+01  -4.500000E+01  -4.500000E+01  -4.500000E+01  -4.500000E+01  -4.500000E+01  -4.500000E+01  -4.500000E+01  -4.500000E+01  -4.500000E+01  -4.500000E+01  -4.500000E+01
  -4.500000E+01  -4.500000E+01  -4.500000E+01  -4.500000E+01  -4.500000E+01  -4.500000E+01  -4.500000E+01  -4.500000E+01  -4.500000E+01  -4.500000E+01  -4.500000E+01  -4.500000E+01  -4.500000E+01  -4.500000E+01  -4.500000E+01  -4.500000E+01  -4.500000E+01  -4.500000E+01  -4.500000E+01  -4.500000E+01  -4.500000E+01  -4.500000E+01  -4.500000E+01  -4.500000E+01  -4.500000E+01  -4.500000E+01  -4.500000E+01  -4.500000E+01  -4.500000E+01  -4.500000E+01  -4.500000E+01  -4.500000E+01  -4.500000E+01  -4.500000E+01  -4.500000E+01
        11         1          (35E15.6)        -1 #botm layer 10
  -5.000000E+01  -5.000000E+01  -5.000000E+01  -5.000000E+01  -5.000000E+01  -5.000000E+01  -5.000000E+01  -5.000000E+01  -5.000000E+01  -5.000000E+01  -5.000000E+01  -5.000000E+01  -5.000000E+01  -5.000000E+01  -5.000000E+01  -5.000000E+01  -5.000000E+01  -5.000000E+01  -5.000000E+01  -5.000000E+01  -5.000000E+01  -5.000000E+01  -5.000000E+01  -5.000000E+01  -5.000000E+01  -5.000000E+01  -5.000000E+01  -5.000000E+01  -5.000000E+01  -5.000000E+01  -5.000000E+01  -5.000000E+01  -5.000000E+01  -5.000000E+01  -5.000000E+01
  -5.000000E+01  -5.000000E+01  -5.000000E+01  -5.000000E+01  -5.000000E+01  -5.000000E+01  -5.000000E+01  -5.000000E+01  -5.000000E+01  -5.000000E+01  -5.000000E+01  -5.000000E+01  -5.000000E+01  -5.000000E+01  -5.000000E+01  -5.000000E+01  -5.000000E+01  -5.000000E+01  -5.000000E+01  -5.000000E+01  -5.000000E+01  -5.000000E+01  -5.000000E+01  -5.000000E+01  -5.000000E+01  -5.000000E+01  -5.000000E+01  -5.000000E+01  -5.000000E+01  -5.000000E+01  -5.000000E+01  -5.000000E+01  -5.000000E+01  -5.000000E+01  -5.000000E+01
  -5.000000E+01  -5.000000E+01  -5.000000E+01  -5.000000E+01  -5.000000E+01  -5.000000E+01  -5.000000E+01  -5.000000E+01  -5.000000E+01  -5.000000E+01  -5.000000E+01  -5.000000E+01  -5.000000E+01  -5.000000E+01  -5.000000E+01  -5.000000E+01  -5.000000E+01  -5.000000E+01  -5.000000E+01  -5.000000E+01  -5.000000E+01  -5.000000E+01  -5.000000E+01  -5.000000E+01  -5.000000E+01  -5.000000E+01  -5.000000E+01  -5.000000E+01  -5.000000E+01  -5.000000E+01  -5.000000E+01  -5.000000E+01  -5.000000E+01  -5.000000E+01  -5.000000E+01
        11         1          (35E15.6)        -1 #botm layer 11
  -5.500000E+01  -5.500000E+01  -5.500000E+01  -5.500000E+01  -5.500000E+01  -5.500000E+01  -5.500000E+01  -5.500000E+01  -5.500000E+01  -5.500000E+01  -5.500000E+01  -5.500000E+01  -5.500000E+01  -5.500000E+01  -5.500000E+01  -5.500000E+01  -5.500000E+01  -5.500000E+01  -5.500000E+01  -5.500000E+01  -5.500000E+01  -5.500000E+01  -5.500000E+01  -5.500000E+01  -5.500000E+01  -5.500000E+01  -5.500000E+01  -5.500000E+01  -5.500000E+01  -5.500000E+01  -5.500000E+01  -5.500000E+01  -5.500000E+01  -5.500000E+01  -5.500000E+01
  -5.500000E+01  -5.500000E+01  -5.500000E+01  -5.500000E+01  -5.500000E+01  -5.500000E+01  -5.500000E+01  -5.500000E+01  -5.500000E+01  -5.500000E+01  -5.500000E+01  -5.500000E+01  -5.500000E+01  -5.500000E+01  -5.500000E+01  -5.500000E+01  -5.500000E+01  -5.500000E+01  -5.500000E+01  -5.500000E+01  -5.500000E+01  -5.500000E+01  -5.500000E+01  -5.500000E+01  -5.500000E+01  -5.500000E+01  -5.500000E+01  -5.500000E+01  -5.500000E+01  -5.500000E+01  -5.500000E+01  -5.500000E+01  -5.500000E+01  -5.500000E+01  -5.500000E+01
  -5.500000E+01  -5.500000E+01  -5.500000E+01  -5.500000E+01  -5.500000E+01  -5.500000E+01  -5.500000E+01  -5.500000E+01  -5.500000E+01  -5.500000E+01  -5.500000E+01  -5.500000E+01  -5.500000E+01  -5.500000E+01  -5.500000E+01  -5.500000E+01  -5.500000E+01  -5.500000E+01  -5.500000E+01  -5.500000E+01  -5.500000E+01  -5.500000E+01  -5.500000E+01  -5.500000E+01  -5.500000E+01  -5.500000E+01  -5.500000E+01  -5.500000E+01  -5.500000E+01  -5.500000E+01  -5.500000E+01  -5.500000E+01  -5.500000E+01  -5.500000E+01  -5.500000E+01
        11         1          (35E15.6)        -1 #botm layer 12
  -6.000000E+01  -6.000000E+01  -6.000000E+01  -6.000000E+01  -6.000000E+01  -6.000000E+01  -6.000000E+01  -6.000000E+01  -6.000000E+01  -6.000000E+01  -6.000000E+01  -6.000000E+01  -6.000000E+01  -6.000000E+01  -6.000000E+01  -6.000000E+01  -6.000000E+01  -6.000000E+01  -6.000000E+01  -6.000000E+01  -6.000000E+01  -6.000000E+01  -6.000000E+01  -6.000000E+01  -6.000000E+01  -6.000000E+01  -6.000000E+01  -6.000000E+01  -6.000000E+01  -6.000000E+01  -6.000000E+01  -6.000000E+01  -6.000000E+01  -6.000000E+01  -6.000000E+01
  -6.000000E+01  -6.000000E+01  -6.000000E+01  -6.000000E+01  -6.000000E+01  -6.000000E+01  -6.000000E+01  -6.000000E+01  -6.000000E+01  -6.000000E+01  -6.000000E+01  -6.000000E+01  -6.000000E+01  -6.000000E+01  -6.000000E+01  -6.000000E+01  -6.000000E+01  -6.000000E+01  -6.000000E+01  -6.000000E+01  -6.000000E+01  -6.000000E+01  -6.000000E+01  -6.000000E+01  -6.000000E+01  -6.000000E+01  -6.000000E+01  -6.000000E+01  -6.000000E+01  -6.000000E+01  -6.000000E+01  -6.000000E+01  -6.000000E+01  -6.000000E+01  -6.000000E+01
  -6.000000E+01  -6.000000E+01  -6.000000E+01  -6.000000E+01  -6.000000E+01  -6.000000E+01  -6.000000E+01  -6.000000E+01  -6.000000E+01  -6.000000E+01  -6.000000E+01  -6.000000E+01  -6.000000E+01  -6.000000E+01  -6.000000E+01  -6.000000E+01  -6.000000E+01  -6.000000E+01  -6.000000E+01  -6.000000E+01  -6.000000E+01  -6.000000E+01  -6.000000E+01  -6.000000E+01  -6.000000E+01  -6.000000E+01  -6.000000E+01  -6.000000E+01  -6.000000E+01  -6.000000E+01  -6.000000E+01  -6.000000E+01  -6.000000E+01  -6.000000E+01  -6.000000E+01
        11         1          (35E15.6)        -1 #botm layer 13
  -6.500000E+01  -6.500000E+01  -6.500000E+01  -6.500000E+01  -6.500000E+01  -6.500000E+01  -6.500000E+01  -6.500000E+01  -6.500000E+01  -6.500000E+01  -6.500000E+01  -6.500000E+01  -6.500000E+01  -6.500000E+01  -6.500000E+01  -6.500000E+01  -6.500000E+01  -6.500000E+01  -6.500000E+01  -6.500000E+01  -6.500000E+01  -6.500000E+01  -6.500000E+01  -6.500000E+01  -6.500000E+01  -6.500000E+01  -6.500000E+01  -6.500000E+01  -6.500000E+01  -6.500000E+01  -6.500000E+01  -6.500000E+01  -6.500000E+01  -6.500000E+01  -6.500000E+01
  -6.500000E+01  -6.500000E+01  -6.500000E+01  -6.500000E+01  -6.500000E+01  -6.500000E+01  -6.500000E+01  -6.500000E+01  -6.500000E+01  -6.500000E+01  -6.500000E+01  -6.500000E+01  -6.500000E+01  -6.500000E+01  -6.500000E+01  -6.500000E+01  -6.500000E+01  -6.500000E+01  -6.500000E+01  -6.500000E+01  -6.500000E+01  -6.500000E+01  -6.500000E+01  -6.500000E+01  -6.500000E+01  -6.500000E+01  -6.500000E+01  -6.500000E+01  -6.500000E+01  -6.500000E+01  -6.500000E+01  -6.500000E+01  -6.500000E+01  -6.500000E+01  -6.500000E+01
  -6.500000E+01  -6.500000E+01  -6.500000E+01  -6.500000E+01  -6.500000E+01  -6.500000E+01  -6.500000E+01  -6.500000E+01  -6.500000E+01  -6.500000E+01  -6.500000E+01  -6.500000E+01  -6.500000E+01  -6.500000E+01  -6.500000E+01  -6.500000E+01  -6.500000E+01  -6.500000E+01  -6.500000E+01  -6.500000E+01  -6.500000E+01  -6.500000E+01  -6.500000E+01  -6.500000E+01  -6.500000E+01  -6.500000E+01  -6.500000E+01  -6.500000E+01  -6.500000E+01  -6.500000E+01  -6.500000E+01  -6.500000E+01  -6.500000E+01  -6.500000E+01  -6.500000E+01
        11         1          (35E15.6)        -1 #botm layer 14
  -7.000000E+01  -7.000000E+01  -7.000000E+01  -7.000000E+01  -7.000000E+01  -7.000000E+01  -7.000000E+01  -7.000000E+01  -7.000000E+01  -7.000000E+01  -7.000000E+01  -7.000000E+01  -7.000000E+01  -7.000000E+01  -7.000000E+01  -7.000000E+01  -7.000000E+01  -7.000000E+01  -7.000000E+01  -7.000000E+01  -7.000000E+01  -7.000000E+01  -7.000000E+01  -7.000000E+01  -7.000000E+01  -7.000000E+01  -7.000000E+01  -7.000000E+01  -7.000000E+01  -7.000000E+01  -7.000000E+01  -7.000000E+01  -7.000000E+01  -7.000000E+01  -7.000000E+01
  -7.000000E+01  -7.000000E+01  -7.000000E+01  -7.000000E+01  -7.000000E+01  -7.000000E+01  -7.000000E+01  -7.000000E+01  -7.000000E+01  -7.000000E+01  -7.000000E+01  -7.000000E+01  -7.000000E+01  -7.000000E+01  -7.000000E+01  -7.000000E+01  -7.000000E+01  -7.000000E+01  -7.000000E+01  -7.000000E+01  -7.000000E+01  -7.000000E+01  -7.000000E+01  -7.000000E+01  -7.000000E+01  -7.000000E+01  -7.000000E+01  -7.000000E+01  -7.000000E+01  -7.000000E+01  -7.000000E+01  -7.000000E+01  -7.000000E+01  -7.000000E+01  -7.000000E+01
  -7.000000E+01  -7.000000E+01  -7.000000E+01  -7.000000E+01  -7.000000E+01  -7.000000E+01  -7.000000E+01  -7.000000E+01  -7.000000E+01  -7.000000E+01  -7.000000E+01  -7.000000E+01  -7.000000E+01  -7.000000E+01  -7.000000E+01  -7.000000E+01  -7.000000E+01  -7.000000E+01  -7.000000E+01  -7.000000E+01  -7.000000E+01  -7.000000E+01  -7.000000E+01  -7.000000E+01  -7.000000E+01  -7.000000E+01  -7.000000E+01  -7.000000E+01  -7.000000E+01  -7.000000E+01  -7.000000E+01  -7.000000E+01  -7.000000E+01  -7.000000E+01  -7.000000E+01
        11         1          (35E15.6)        -1 #botm layer 15
  -7.500000E+01  -7.500000E+01  -7.500000E+01  -7.500000E+01  -7.500000E+01  -7.500000E+01  -7.500000E+01  -7.500000E+01  -7.500000E+01  -7.500000E+01  -7.500000E+01  -7.500000E+01  -7.500000E+01  -7.500000E+01  -7.500000E+01  -7.500000E+01  -7.500000E+01  -7.500000E+01  -7.500000E+01  -7.500000E+01  -7.500000E+01  -7.500000E+01  -7.500000E+01  -7.500000E+01  -7.500000E+01  -7.500000E+01  -7.500000E+01  -7.500000E+01  -7.500000E+01  -7.500000E+01  -7.500000E+01  -7.500000E+01  -7.500000E+01  -7.500000E+01  -7.500000E+01
  -7.500000E+01  -7.500000E+01  -7.500000E+01  -7.500000E+01  -7.500000E+01  -7.500000E+01  -7.500000E+01  -7.500000E+01  -7.500000E+01  -7.500000E+01  -7.500000E+01  -7.500000E+01  -7.500000E+01  -7.500000E+01  -7.500000E+01  -7.500000E+01  -7.500000E+01  -7.500000E+01  -7.500000E+01  -7.500000E+01  -7.500000E+01  -7.500000E+01  -7.500000E+01  -7.500000E+01  -7.500000E+01  -7.500000E+01  -7.500000E+01  -7.500000E+01  -7.500000E+01  -7.500000E+01  -7.500000E+01  -7.500000E+01  -7.500000E+01  -7.500000E+01  -7.500000E+01
  -7.500000E+01  -7.500000E+01  -7.500000E+01  -7.500000E+01  -7.500000E+01  -7.500000E+01  -7.500000E+01  -7.500000E+01  -7.500000E+01  -7.500000E+01  -7.500000E+01  -7.500000E+01  -7.500000E+01  -7.500000E+01  -7.500000E+01  -7.500000E+01  -7.500000E+01  -7.500000E+01  -7.500000E+01  -7.500000E+01  -7.500000E+01  -7.500000E+01  -7.500000E+01  -7.500000E+01  -7.500000E+01  -7.500000E+01  -7.500000E+01  -7.500000E+01  -7.500000E+01  -7.500000E+01  -7.500000E+01  -7.500000E+01  -7.500000E+01  -7.500000E+01  -7.500000E+01
        11         1          (35E15.6)        -1 #botm layer 16
  -8.000000E+01  -8.000000E+01  -8.000000E+01  -8.000000E+01  -8.000000E+01  -8.000000E+01  -8.000000E+01  -8.000000E+01  -8.000000E+01  -8.000000E+01  -8.000000E+01  -8.000000E+01  -8.000000E+01  -8.000000E+01  -8.000000E+01  -8.000000E+01  -8.000000E+01  -8.000000E+01  -8.000000E+01  -8.000000E+01  -8.000000E+01  -8.000000E+01  -8.000000E+01  -8.000000E+01  -8.000000E+01  -8.000000E+01  -8.000000E+01  -8.000000E+01  -8.000000E+01  -8.000000E+01  -8.000000E+01  -8.000000E+01  -8.000000E+01  -8.000000E+01  -8.000000E+01
  -8.000000E+01  -8.000000E+01  -8.000000E+01  -8.000000E+01  -8.000000E+01  -8.000000E+01  -8.000000E+01  -8.000000E+01  -8.000000E+01  -8.000000E+01  -8.000000E+01  -8.000000E+01  -8.000000E+01  -8.000000E+01  -8.000000E+01  -8.000000E+01  -8.000000E+01  -8.000000E+01  -8.000000E+01  -8.000000E+01  -8.000000E+01  -8.000000E+01  -8.000000E+01  -8.000000E+01  -8.000000E+01  -8.000000E+01  -8.000000E+01  -8.000000E+01  -8.000000E+01  -8.000000E+01  -8.000000E+01  -8.000000E+01  -8.000000E+01  -8.000000E+01  -8.000000E+01
  -8.000000E+01  -8.000000E+01  -8.000000E+01  -8.000000E+01  -8.000000E+01  -8.000000E+01  -8.000000E+01  -8.000000E+01  -8.000000E+01  -8.000000E+01  -8.000000E+01  -8.000000E+01  -8.000000E+01  -8.000000E+01  -8.000000E+01  -8.000000E+01  -8.000000E+01  -8.000000E+01  -8.000000E+01  -8.000000E+01  -8.000000E+01  -8.000000E+01  -8.000000E+01  -8.000000E+01  -8.000000E+01  -8.000000E+01  -8.000000E+01  -8.000000E+01  -8.000000E+01  -8.000000E+01  -8.000000E+01  -8.000000E+01  -8.000000E+01  -8.000000E+01  -8.000000E+01
     30.000000             1  1.000000  SS
