# BAS6 package for SEAWAT generated by Flopy 3.4.3
FREE
        13         1            (35I10)        -1 #ibound layer 1
        -1        -1        -1        -1        -1        -1        -1        -1        -1        -1        -1        -1        -1        -1        -1        -1        -1        -1        -1        -1        -1        -1        -1        -1        -1        -1        -1        -1        -1        -1        -1        -1        -1        -1        -1
        -1        -1        -1        -1        -1        -1        -1        -1        -1        -1        -1        -1        -1        -1        -1        -1        -1        -1        -1        -1        -1        -1        -1        -1        -1        -1        -1        -1        -1        -1        -1        -1        -1        -1        -1
        -1        -1        -1        -1        -1        -1        -1        -1        -1        -1        -1        -1        -1        -1        -1        -1        -1        -1        -1        -1        -1        -1        -1        -1        -1        -1        -1        -1        -1        -1        -1        -1        -1        -1        -1
        13         1            (35I10)        -1 #ibound layer 2
         1         1         1         1         1         1         1         1         1         1         1         1         1         1         1         1         1         1         1         1         1         1         1         1         1         1         1         1         1         1         1         1         1         1        -1
         0         0         0         0         0         0         0         0         0         0         0         0         0         0         0         0         0         0         0         0         0         0         0         0         0         0         0         0         0         0         0         0         0         0         0
         1         1         1         1         1         1         1         1         1         1         1         1         1         1         1         1         1         1         1         1         1         1         1         1         1         1         1         1         1         1         1         1         1         1        -1
        13         1            (35I10)        -1 #ibound layer 3
         1         1         1         1         1         1         1         1         1         1         1         1         1         1         1         1         1         1         1         1         1         1         1         1         1         1         1         1         1         1         1         1         1         1        -1
         0         0         0         0         0         0         0         0         0         0         0         0         0         0         0         0         0         0         0         0         0         0         0         0         0         0         0         0         0         0         0         0         0         0         0
         1         1         1         1         1         1         1         1         1         1         1         1         1         1         1         1         1         1         1         1         1         1         1         1         1         1         1         1         1         1         1         1         1         1        -1
        13         1            (35I10)        -1 #ibound layer 4
         1         1         1         1         1         1         1         1         1         1         1         1         1         1         1         1         1         1         1         1         1         1         1         1         1         1         1         1         1         1         1         1         1         1        -1
         0         0         0         0         0         0         0         0         0         0         0         0         0         0         0         0         0         0         0         0         0         0         0         0         0         0         0         0         0         0         0         0         0         0         0
         1         1         1         1         1         1         1         1         1         1         1         1         1         1         1         1         1         1         1         1         1         1         1         1         1         1         1         1         1         1         1         1         1         1        -1
        13         1            (35I10)        -1 #ibound layer 5
         1         1         1         1         1         1         1         1         1         1         1         1         1         1         1         1         1         1         1         1         1         1         1         1         1         1         1         1         1         1         1         1         1         1        -1
         0         0         0         0         0         0         0         0         0         0         0         0         0         0         0         0         0         0         0         0         0         0         0         0         0         0         0         0         0         0         0         0         0         0         0
         1         1         1         1         1         1         1         1         1         1         1         1         1         1         1         1         1         1         1         1         1         1         1         1         1         1         1         1         1         1         1         1         1         1        -1
        13         1            (35I10)        -1 #ibound layer 6
         1         1         1         1         1         1         1         1         1         1         1         1         1         1         1         1         1         1         1         1         1         1         1         1         1         1         1         1         1         1         1         1         1         1        -1
         0         0         0         0         0         0         0         0         0         0         0         0         0         0         0         0         0         0         0         0         0         0         0         0         0         0         0         0         0         0         0         0         0         0         0
         1         1         1         1         1         1         1         1         1         1         1         1         1         1         1         1         1         1         1         1         1         1         1         1         1         1         1         1         1         1         1         1         1         1        -1
        13         1            (35I10)        -1 #ibound layer 7
         1         1         1         1         1         1         1         1         1         1         1         1         1         1         1         1         1         1         1         1         1         1         1         1         1         1         1         1         1         1         1         1         1         1        -1
         0         0         0         0         0         0         0         0         0         0         0         0         0         0         0         0         0         0         0         0         0         0         0         0         0         0         0         0         0         0         0         0         0         0         0
         1         1         1         1         1         1         1         1         1         1         1         1         1         1         1         1         1         1         1         1         1         1         1         1         1         1         1         1         1         1         1         1         1         1        -1
        13         1            (35I10)        -1 #ibound layer 8
         1         1         1         1         1         1         1         1         1         1         1         1         1         1         1         1         1         1         1         1         1         1         1         1         1         1         1         1         1         1         1         1         1         1        -1
         0         0         0         0         0         0         0         0         0         0         0         0         0         0         0         0         0         0         0         0         0         0         0         0         0         0         0         0         0         0         0         0         0         0         0
         1         1         1         1         1         1         1         1         1         1         1         1         1         1         1         1         1         1         1         1         1         1         1         1         1         1         1         1         1         1         1         1         1         1        -1
        13         1            (35I10)        -1 #ibound layer 9
         1         1         1         1         1         1         1         1         1         1         1         1         1         1         1         1         1         1         1         1         1         1         1         1         1         1         1         1         1         1         1         1         1         1        -1
         0         0         0         0         0         0         0         0         0         0         0         0         0         0         0         0         0         0         0         0         0         0         0         0         0         0         0         0         0         0         0         0         0         0         0
         1         1         1         1         1         1         1         1         1         1         1         1         1         1         1         1         1         1         1         1         1         1         1         1         1         1         1         1         1         1         1         1         1         1        -1
        13         1            (35I10)        -1 #ibound layer 10
         1         1         1         1         1         1         1         1         1         1         1         1         1         1         1         1         1         1         1         1         1         1         1         1         1         1         1         1         1         1         1         1         1         1        -1
         0         0         0         0         0         0         0         0         0         0         0         0         0         0         0         0         0         0         0         0         0         0         0         0         0         0         0         0         0         0         0         0         0         0         0
         1         1         1         1         1         1         1         1         1         1         1         1         1         1         1         1         1         1         1         1         1         1         1         1         1         1         1         1         1         1         1         1         1         1        -1
        13         1            (35I10)        -1 #ibound layer 11
         1         1         1         1         1         1         1         1         1         1         1         1         1         1         1         1         1         1         1         1         1         1         1         1         1         1         1         1         1         1         1         1         1         1        -1
         0         0         0         0         0         0         0         0         0         0         0         0         0         0         0         0         0         0         0         0         0         0         0         0         0         0         0         0         0         0         0         0         0         0         0
         1         1         1         1         1         1         1         1         1         1         1         1         1         1         1         1         1         1         1         1         1         1         1         1         1         1         1         1         1         1         1         1         1         1        -1
        13         1            (35I10)        -1 #ibound layer 12
         1         1         1         1         1         1         1         1         1         1         1         1         1         1         1         1         1         1         1         1         1         1         1         1         1         1         1         1         1         1         1         1         1         1        -1
         0         0         0         0         0         0         0         0         0         0         0         0         0         0         0         0         0         0         0         0         0         0         0         0         0         0         0         0         0         0         0         0         0         0         0
         1         1         1         1         1         1         1         1         1         1         1         1         1         1         1         1         1         1         1         1         1         1         1         1         1         1         1         1         1         1         1         1         1         1        -1
        13         1            (35I10)        -1 #ibound layer 13
         1         1         1         1         1         1         1         1         1         1         1         1         1         1         1         1         1         1         1         1         1         1         1         1         1         1         1         1         1         1         1         1         1         1        -1
         0         0         0         0         0         0         0         0         0         0         0         0         0         0         0         0         0         0         0         0         0         0         0         0         0         0         0         0         0         0         0         0         0         0         0
         1         1         1         1         1         1         1         1         1         1         1         1         1         1         1         1         1         1         1         1         1         1         1         1         1         1         1         1         1         1         1         1         1         1        -1
        13         1            (35I10)        -1 #ibound layer 14
         1         1         1         1         1         1         1         1         1         1         1         1         1         1         1         1         1         1         1         1         1         1         1         1         1         1         1         1         1         1         1         1         1         1        -1
         0         0         0         0         0         0         0         0         0         0         0         0         0         0         0         0         0         0         0         0         0         0         0         0         0         0         0         0         0         0         0         0         0         0         0
         1         1         1         1         1         1         1         1         1         1         1         1         1         1         1         1         1         1         1         1         1         1         1         1         1         1         1         1         1         1         1         1         1         1        -1
        13         1            (35I10)        -1 #ibound layer 15
         1         1         1         1         1         1         1         1         1         1         1         1         1         1         1         1         1         1         1         1         1         1         1         1         1         1         1         1         1         1         1         1         1         1        -1
         0         0         0         0         0         0         0         0         0         0         0         0         0         0         0         0         0         0         0         0         0         0         0         0         0         0         0         0         0         0         0         0         0         0         0
         1         1         1         1         1         1         1         1         1         1         1         1         1         1         1         1         1         1         1         1         1         1         1         1         1         1         1         1         1         1         1         1         1         1        -1
        13         1            (35I10)        -1 #ibound layer 16
        -1        -1        -1        -1        -1        -1        -1        -1        -1        -1        -1        -1        -1        -1        -1        -1        -1        -1        -1        -1        -1        -1        -1        -1        -1        -1        -1        -1        -1        -1        -1        -1        -1        -1        -1
        -1        -1        -1        -1        -1        -1        -1        -1        -1        -1        -1        -1        -1        -1        -1        -1        -1        -1        -1        -1        -1        -1        -1        -1        -1        -1        -1        -1        -1        -1        -1        -1        -1        -1        -1
        -1        -1        -1        -1        -1        -1        -1        -1        -1        -1        -1        -1        -1        -1        -1        -1        -1        -1        -1        -1        -1        -1        -1        -1        -1        -1        -1        -1        -1        -1        -1        -1        -1        -1        -1
   -999.99
        13         1          (35E15.6)        -1 #strt layer 1
  -7.277336E-09  -7.277336E-09  -7.277336E-09  -7.277336E-09  -7.277336E-09  -7.277336E-09  -7.277336E-09  -7.277336E-09  -7.277336E-09  -7.277336E-09  -7.277336E-09  -7.277336E-09  -7.277336E-09  -7.277336E-09  -7.277336E-09  -7.277336E-09  -7.277336E-09  -7.277336E-09  -7.277336E-09  -7.277336E-09  -7.277336E-09  -7.277336E-09  -7.277336E-09  -7.277336E-09  -7.277336E-09  -7.277336E-09  -7.277336E-09  -7.277336E-09  -7.277336E-09  -7.277336E-09  -7.277336E-09  -7.277336E-09  -7.277336E-09  -7.277336E-09  -7.277336E-09
  -7.277336E-09  -7.277336E-09  -7.277336E-09  -7.277336E-09  -7.277336E-09  -7.277336E-09  -7.277336E-09  -7.277336E-09  -7.277336E-09  -7.277336E-09  -7.277336E-09  -7.277336E-09  -7.277336E-09  -7.277336E-09  -7.277336E-09  -7.277336E-09  -7.277336E-09  -7.277336E-09  -7.277336E-09  -7.277336E-09  -7.277336E-09  -7.277336E-09  -7.277336E-09  -7.277336E-09  -7.277336E-09  -7.277336E-09  -7.277336E-09  -7.277336E-09  -7.277336E-09  -7.277336E-09  -7.277336E-09  -7.277336E-09  -7.277336E-09  -7.277336E-09  -7.277336E-09
  -7.277336E-09  -7.277336E-09  -7.277336E-09  -7.277336E-09  -7.277336E-09  -7.277336E-09  -7.277336E-09  -7.277336E-09  -7.277336E-09  -7.277336E-09  -7.277336E-09  -7.277336E-09  -7.277336E-09  -7.277336E-09  -7.277336E-09  -7.277336E-09  -7.277336E-09  -7.277336E-09  -7.277336E-09  -7.277336E-09  -7.277336E-09  -7.277336E-09  -7.277336E-09  -7.277336E-09  -7.277336E-09  -7.277336E-09  -7.277336E-09  -7.277336E-09  -7.277336E-09  -7.277336E-09  -7.277336E-09  -7.277336E-09  -7.277336E-09  -7.277336E-09  -7.277336E-09
        13         1          (35E15.6)        -1 #strt layer 2
  -2.213310E-02  -2.203375E-02  -2.187780E-02  -2.165786E-02  -2.137760E-02  -2.104298E-02  -2.066097E-02  -2.023900E-02  -1.978449E-02  -1.930456E-02  -1.880585E-02  -1.829435E-02  -1.777538E-02  -1.725351E-02  -1.673263E-02  -1.621597E-02  -1.570615E-02  -1.520528E-02  -1.471498E-02  -1.423647E-02  -1.377063E-02  -1.325346E-02  -1.260759E-02  -1.181333E-02  -1.085634E-02  -9.733112E-03  -8.456647E-03  -7.060060E-03  -5.596191E-03  -4.133171E-03  -2.747615E-03  -1.516223E-03  -5.058358E-04   2.150814E-04  -1.964839E-07
  -9.999900E+02  -9.999900E+02  -9.999900E+02  -9.999900E+02  -9.999900E+02  -9.999900E+02  -9.999900E+02  -9.999900E+02  -9.999900E+02  -9.999900E+02  -9.999900E+02  -9.999900E+02  -9.999900E+02  -9.999900E+02  -9.999900E+02  -9.999900E+02  -9.999900E+02  -9.999900E+02  -9.999900E+02  -9.999900E+02  -9.999900E+02  -9.999900E+02  -9.999900E+02  -9.999900E+02  -9.999900E+02  -9.999900E+02  -9.999900E+02  -9.999900E+02  -9.999900E+02  -9.999900E+02  -9.999900E+02  -9.999900E+02  -9.999900E+02  -9.999900E+02  -9.999900E+02
   2.430881E-02   2.420980E-02   2.405437E-02   2.383521E-02   2.355599E-02   2.322267E-02   2.284220E-02   2.242198E-02   2.196937E-02   2.149144E-02   2.099478E-02   2.048533E-02   1.996832E-02   1.944832E-02   1.892916E-02   1.841404E-02   1.790559E-02   1.740589E-02   1.691655E-02   1.643880E-02   1.597353E-02   1.545680E-02   1.481119E-02   1.401675E-02   1.305881E-02   1.193337E-02   1.065280E-02   9.249324E-03   7.774435E-03   6.293875E-03   4.879759E-03   3.599809E-03   2.499393E-03   1.548212E-03  -1.964839E-07
        13         1          (35E15.6)        -1 #strt layer 3
  -4.512173E-02  -4.490440E-02  -4.456422E-02  -4.408631E-02  -4.348007E-02  -4.275992E-02  -4.194228E-02  -4.104414E-02  -4.008211E-02  -3.907178E-02  -3.802733E-02  -3.696132E-02  -3.588460E-02  -3.480637E-02  -3.373427E-02  -3.267449E-02  -3.163199E-02  -3.061062E-02  -2.961325E-02  -2.864201E-02  -2.769831E-02  -2.665243E-02  -2.534881E-02  -2.374899E-02  -2.182540E-02  -1.957203E-02  -1.701531E-02  -1.422118E-02  -1.129443E-02  -8.370331E-03  -5.601379E-03  -3.140569E-03  -1.121203E-03   3.226526E-04  -9.096251E-07
  -9.999900E+02  -9.999900E+02  -9.999900E+02  -9.999900E+02  -9.999900E+02  -9.999900E+02  -9.999900E+02  -9.999900E+02  -9.999900E+02  -9.999900E+02  -9.999900E+02  -9.999900E+02  -9.999900E+02  -9.999900E+02  -9.999900E+02  -9.999900E+02  -9.999900E+02  -9.999900E+02  -9.999900E+02  -9.999900E+02  -9.999900E+02  -9.999900E+02  -9.999900E+02  -9.999900E+02  -9.999900E+02  -9.999900E+02  -9.999900E+02  -9.999900E+02  -9.999900E+02  -9.999900E+02  -9.999900E+02  -9.999900E+02  -9.999900E+02  -9.999900E+02  -9.999900E+02
   4.924553E-02   4.902879E-02   4.868961E-02   4.821320E-02   4.760904E-02   4.689157E-02   4.607721E-02   4.518284E-02   4.422497E-02   4.321904E-02   4.217909E-02   4.111751E-02   4.004507E-02   3.897085E-02   3.790241E-02   3.684591E-02   3.580627E-02   3.478731E-02   3.379194E-02   3.282225E-02   3.187970E-02   3.083471E-02   2.953156E-02   2.793133E-02   2.600576E-02   2.374787E-02   2.118285E-02   1.837490E-02   1.542611E-02   1.246695E-02   9.640929E-03   7.083132E-03   4.884339E-03   2.986733E-03  -9.096251E-07
        13         1          (35E15.6)        -1 #strt layer 4
  -6.985072E-02  -6.946820E-02  -6.887329E-02  -6.804398E-02  -6.700156E-02  -6.577560E-02  -6.439810E-02  -6.290074E-02  -6.131316E-02  -5.966207E-02  -5.797081E-02  -5.625925E-02  -5.454393E-02  -5.283836E-02  -5.115330E-02  -4.949718E-02  -4.787641E-02  -4.629572E-02  -4.475844E-02  -4.326677E-02  -4.182197E-02  -4.022517E-02  -3.824106E-02  -3.581423E-02  -3.290596E-02  -2.950952E-02  -2.566559E-02  -2.147230E-02  -1.708472E-02  -1.270335E-02  -8.555202E-03  -4.868812E-03  -1.843215E-03   3.271701E-04  -2.495958E-06
  -9.999900E+02  -9.999900E+02  -9.999900E+02  -9.999900E+02  -9.999900E+02  -9.999900E+02  -9.999900E+02  -9.999900E+02  -9.999900E+02  -9.999900E+02  -9.999900E+02  -9.999900E+02  -9.999900E+02  -9.999900E+02  -9.999900E+02  -9.999900E+02  -9.999900E+02  -9.999900E+02  -9.999900E+02  -9.999900E+02  -9.999900E+02  -9.999900E+02  -9.999900E+02  -9.999900E+02  -9.999900E+02  -9.999900E+02  -9.999900E+02  -9.999900E+02  -9.999900E+02  -9.999900E+02  -9.999900E+02  -9.999900E+02  -9.999900E+02  -9.999900E+02  -9.999900E+02
   7.569267E-02   7.531068E-02   7.471687E-02   7.388940E-02   7.284989E-02   7.162811E-02   7.025608E-02   6.876525E-02   6.718496E-02   6.554161E-02   6.385820E-02   6.215434E-02   6.044634E-02   5.874753E-02   5.706858E-02   5.541784E-02   5.380168E-02   5.222484E-02   5.069066E-02   4.920138E-02   4.775832E-02   4.616280E-02   4.417930E-02   4.175168E-02   3.884022E-02   3.543678E-02   3.158021E-02   2.736608E-02   2.294539E-02   1.851148E-02   1.427786E-02   1.044630E-02   7.153089E-03   4.317963E-03  -2.495958E-06
        13         1          (35E15.6)        -1 #strt layer 5
  -9.755882E-02  -9.690405E-02  -9.589940E-02  -9.452012E-02  -9.281559E-02  -9.084624E-02  -8.867244E-02  -8.634982E-02  -8.392708E-02  -8.144533E-02  -7.893831E-02  -7.643306E-02  -7.395073E-02  -7.150751E-02  -6.911550E-02  -6.678338E-02  -6.451721E-02  -6.232086E-02  -6.019655E-02  -5.814519E-02  -5.616668E-02  -5.398810E-02  -5.129225E-02  -4.800927E-02  -4.409214E-02  -3.953572E-02  -3.439585E-02  -2.880192E-02  -2.295693E-02  -1.712407E-02  -1.160300E-02  -6.696739E-03  -2.669035E-03   2.325836E-04  -5.304697E-06
  -9.999900E+02  -9.999900E+02  -9.999900E+02  -9.999900E+02  -9.999900E+02  -9.999900E+02  -9.999900E+02  -9.999900E+02  -9.999900E+02  -9.999900E+02  -9.999900E+02  -9.999900E+02  -9.999900E+02  -9.999900E+02  -9.999900E+02  -9.999900E+02  -9.999900E+02  -9.999900E+02  -9.999900E+02  -9.999900E+02  -9.999900E+02  -9.999900E+02  -9.999900E+02  -9.999900E+02  -9.999900E+02  -9.999900E+02  -9.999900E+02  -9.999900E+02  -9.999900E+02  -9.999900E+02  -9.999900E+02  -9.999900E+02  -9.999900E+02  -9.999900E+02  -9.999900E+02
   1.048872E-01   1.042314E-01   1.032262E-01   1.018473E-01   1.001453E-01   9.818163E-02   9.601657E-02   9.370513E-02   9.129508E-02   8.882664E-02   8.633288E-02   8.384030E-02   8.136971E-02   7.893708E-02   7.655437E-02   7.423026E-02   7.197079E-02   6.977990E-02   6.765988E-02   6.561173E-02   6.363548E-02   6.145846E-02   5.876316E-02   5.547876E-02   5.155692E-02   4.699071E-02   4.183364E-02   3.621172E-02   3.032256E-02   2.441973E-02   1.878493E-02   1.368567E-02   9.303859E-03   5.543802E-03  -5.304697E-06
        13         1          (35E15.6)        -1 #strt layer 6
  -1.302876E-01  -1.290921E-01  -1.273137E-01  -1.249473E-01  -1.221139E-01  -1.189397E-01  -1.155364E-01  -1.119965E-01  -1.083930E-01  -1.047816E-01  -1.012037E-01  -9.768946E-02  -9.425971E-02  -9.092855E-02  -8.770487E-02  -8.459364E-02  -8.159699E-02  -7.871494E-02  -7.594603E-02  -7.328773E-02  -7.073680E-02  -6.794027E-02  -6.449659E-02  -6.032444E-02  -5.537165E-02  -4.963715E-02  -4.319279E-02  -3.619793E-02  -2.890080E-02  -2.162435E-02  -1.473873E-02  -8.620165E-03  -3.595904E-03   4.235753E-05  -9.685034E-06
  -9.999900E+02  -9.999900E+02  -9.999900E+02  -9.999900E+02  -9.999900E+02  -9.999900E+02  -9.999900E+02  -9.999900E+02  -9.999900E+02  -9.999900E+02  -9.999900E+02  -9.999900E+02  -9.999900E+02  -9.999900E+02  -9.999900E+02  -9.999900E+02  -9.999900E+02  -9.999900E+02  -9.999900E+02  -9.999900E+02  -9.999900E+02  -9.999900E+02  -9.999900E+02  -9.999900E+02  -9.999900E+02  -9.999900E+02  -9.999900E+02  -9.999900E+02  -9.999900E+02  -9.999900E+02  -9.999900E+02  -9.999900E+02  -9.999900E+02  -9.999900E+02  -9.999900E+02
   1.388761E-01   1.376691E-01   1.358795E-01   1.335032E-01   1.306667E-01   1.274989E-01   1.241114E-01   1.205936E-01   1.170151E-01   1.134289E-01   1.098747E-01   1.063818E-01   1.029708E-01   9.965571E-02   9.644561E-02   9.334561E-02   9.035803E-02   8.748310E-02   8.471958E-02   8.206517E-02   7.951678E-02   7.672182E-02   7.327826E-02   6.910362E-02   6.414414E-02   5.839667E-02   5.193023E-02   4.490010E-02   3.754772E-02   3.018396E-02   2.315653E-02   1.679759E-02   1.133481E-02   6.665674E-03  -9.685034E-06
        13         1          (35E15.6)        -1 #strt layer 7
  -1.720920E-01  -1.695152E-01  -1.659729E-01  -1.615617E-01  -1.565841E-01  -1.512932E-01  -1.458759E-01  -1.404620E-01  -1.351377E-01  -1.299578E-01  -1.249551E-01  -1.201471E-01  -1.155415E-01  -1.111393E-01  -1.069370E-01  -1.029287E-01  -9.910679E-02  -9.546278E-02  -9.198788E-02  -8.867320E-02  -8.551005E-02  -8.205893E-02  -7.783158E-02  -7.273825E-02  -6.672471E-02  -5.979623E-02  -5.204118E-02  -4.364755E-02  -3.490593E-02  -2.619605E-02  -1.795636E-02  -1.063494E-02  -4.621164E-03  -2.405057E-04  -1.598614E-05
  -9.999900E+02  -9.999900E+02  -9.999900E+02  -9.999900E+02  -9.999900E+02  -9.999900E+02  -9.999900E+02  -9.999900E+02  -9.999900E+02  -9.999900E+02  -9.999900E+02  -9.999900E+02  -9.999900E+02  -9.999900E+02  -9.999900E+02  -9.999900E+02  -9.999900E+02  -9.999900E+02  -9.999900E+02  -9.999900E+02  -9.999900E+02  -9.999900E+02  -9.999900E+02  -9.999900E+02  -9.999900E+02  -9.999900E+02  -9.999900E+02  -9.999900E+02  -9.999900E+02  -9.999900E+02  -9.999900E+02  -9.999900E+02  -9.999900E+02  -9.999900E+02  -9.999900E+02
   1.818189E-01   1.791561E-01   1.755327E-01   1.710524E-01   1.660371E-01   1.607472E-01   1.553638E-01   1.500041E-01   1.447407E-01   1.396182E-01   1.346644E-01   1.298961E-01   1.253219E-01   1.209443E-01   1.167612E-01   1.127678E-01   1.089572E-01   1.053217E-01   1.018528E-01   9.854217E-02   9.538133E-02   9.193125E-02   8.770298E-02   8.260544E-02   7.658263E-02   6.963748E-02   6.185516E-02   5.341879E-02   4.461083E-02   3.579642E-02   2.738708E-02   1.977843E-02   1.324402E-02   7.684554E-03  -1.598614E-05
        13         1          (35E15.6)        -1 #strt layer 8