# PCG package for SEAWAT generated by Flopy 3.4.3
200 200 1 0
0.001 0.001 1.0 0 0 3 1.0 
