# WEL package for SEAWAT generated by Flopy 3.4.3
        10         0 
        10         0 # stress period 1
        10         1         1          -147.4
        11         1         1          -147.4
        12         1         1          -147.4
        13         1         1          -147.4
        14         1         1          -147.4
        10         3         1           147.4
        11         3         1           147.4
        12         3         1           147.4
        13         3         1           147.4
        14         3         1           147.4
